0
@<TRIPOS>MOLECULE
Nanorod
2800	2400
SMALL
NO_CHARGES
@<TRIPOS>ATOM
     1	1	-19.1699	-8.04955	 10.8528	N.3
     2	2	-18.1718	-8.13244	 11.3196	C.1
     3	2	 -18.182	-7.74359	 10.4638	C.1
     4	2	-19.7632	-7.51726	  11.618	C.1
     5	2	-19.7734	-7.12841	 10.7623	C.1
     6	2	-19.5595	-9.08224	 10.9045	C.1
     7	2	-19.5696	-8.69338	 10.0487	C.1
     8	1	-0.0597194	 13.2765	 9.95216	N.3
     9	2	0.945008	 13.2541	 10.4114	C.1
    10	2	0.935251	 13.2713	 9.47163	C.1
    11	2	-0.542686	 14.1405	 10.4431	C.1
    12	2	-0.552442	 14.1577	 9.50327	C.1
    13	2	-0.566845	  12.409	 10.4117	C.1
    14	2	-0.576602	 12.4261	 9.47188	C.1
    15	1	 10.4212	 8.36832	-12.0775	N.3
    16	2	 11.2947	 8.19305	-11.4239	C.1
    17	2	  11.479	 8.19495	-12.3456	C.1
    18	2	 9.99394	 9.30727	-11.6817	C.1
    19	2	 10.1783	 9.30917	-12.6034	C.1
    20	2	 9.69856	 7.60179	-11.7443	C.1
    21	2	 9.88287	 7.60369	 -12.666	C.1
    22	1	 7.41439	-13.9849	-16.4664	N.3
    23	2	 8.26323	-13.3098	-16.2551	C.1
    24	2	 7.95325	-13.2968	-17.1425	C.1
    25	2	 6.66807	-13.6986	-15.7036	C.1
    26	2	 6.35808	-13.6856	-16.5909	C.1
    27	2	 7.77686	-14.9658	-16.1095	C.1
    28	2	 7.46687	-14.9527	-16.9969	C.1
    29	1	 0.48769	-6.55714	-19.8421	N.3
    30	2	 1.51752	-6.38121	-19.4824	C.1
    31	2	   1.433	-6.49862	-20.4112	C.1
    32	2	-0.0754646	-5.70384	 -19.423	C.1
    33	2	-0.15999	-5.82126	-20.3518	C.1
    34	2	0.147799	-7.41024	-19.2276	C.1
    35	2	0.0632739	-7.52766	-20.1564	C.1
    36	1	 8.87021	-18.7753	 4.50104	N.3
    37	2	 9.95513	-18.9838	 4.52109	C.1
    38	2	  9.4952	-19.3296	  3.7778	C.1
    39	2	 8.82184	-17.6773	 4.61453	C.1
    40	2	 8.36191	-18.0231	 3.87124	C.1
    41	2	 8.52357	-19.1462	 5.48245	C.1
    42	2	 8.06364	 -19.492	 4.73916	C.1
    43	1	 8.58303	 1.63524	  16.711	N.3
    44	2	 9.39648	  1.8363	 17.4312	C.1
    45	2	 9.67783	 1.58604	 16.5699	C.1
    46	2	 7.97181	 2.55455	 16.7571	C.1
    47	2	 8.25316	  2.3043	 15.8959	C.1
    48	2	 7.95877	0.890244	 17.2365	C.1
    49	2	 8.24012	0.639992	 16.3752	C.1
    50	1	-5.06637	 11.1492	-14.3132	N.3
    51	2	-4.02962	 11.1509	 -13.931	C.1
    52	2	-4.11455	 11.2866	-14.8573	C.1
    53	2	-5.57032	 11.9013	-13.6798	C.1
    54	2	-5.65525	  12.037	-14.6061	C.1
    55	2	-5.47178	 10.1917	-13.9394	C.1
    56	2	 -5.5567	 10.3274	-14.8656	C.1
    57	1	-2.63944	 13.0433	-2.32667	N.3
    58	2	-1.73789	 13.2256	-1.71441	C.1
    59	2	-1.57395	 13.0293	-2.61895	C.1
    60	2	 -3.2544	 13.9431	-2.14497	C.1
    61	2	-3.09045	 13.7468	-3.04951	C.1
    62	2	-3.17195	 12.2556	-1.76383	C.1
    63	2	  -3.008	 12.0593	-2.66837	C.1
    64	1	 6.01589	-17.3775	 0.52553	N.3
    65	2	 6.83715	-16.8603	 1.05366	C.1
    66	2	 7.10732	-17.4404	0.365149	C.1
    67	2	 5.35683	-16.5486	0.210173	C.1
    68	2	   5.627	-17.1287	-0.478336	C.1
    69	2	 5.44843	-17.8534	 1.34552	C.1
    70	2	  5.7186	-18.4335	0.657012	C.1
    71	1	0.865886	-19.5285	 12.2089	N.3
    72	2	 1.88814	-19.3127	 12.5686	C.1
    73	2	 1.75557	-19.1938	 11.6456	C.1
    74	2	0.231314	-18.9003	 12.8597	C.1
    75	2	0.0987461	-18.7813	 11.9368	C.1
    76	2	0.677057	-20.5509	 12.5829	C.1
    77	2	0.544488	-20.4319	   11.66	C.1
    78	1	-16.3816	 2.38593	-7.23056	N.3
    79	2	 -15.602	 2.11993	-6.49417	C.1
    80	2	-15.2913	 2.27166	-7.36826	C.1
    81	2	-16.8932	 3.24377	-6.75806	C.1
    82	2	-16.5825	  3.3955	-7.63215	C.1
    83	2	-17.1158	 1.56651	 -7.1283	C.1
    84	2	-16.8051	 1.71824	 -8.0024	C.1
    85	1	 13.1473	-16.9258	-15.4406	N.3
    86	2	 14.1361	-17.2826	-15.1003	C.1
    87	2	 13.9803	-17.3573	-16.0243	C.1
    88	2	 13.0968	-15.8984	-15.0371	C.1
    89	2	 12.9411	-15.9732	-15.9611	C.1
    90	2	 12.4425	-17.4842	-14.7985	C.1
    91	2	 12.2868	 -17.559	-15.7225	C.1
    92	1	 1.90345	-15.1218	 5.05149	N.3
    93	2	 2.94387	-15.0364	 5.41359	C.1
    94	2	 2.84394	-15.0293	 4.47894	C.1
    95	2	 1.38224	-14.3073	 5.58604	C.1
    96	2	 1.28231	-14.3003	 4.65139	C.1
    97	2	 1.53412	-16.0324	  5.5568	C.1
    98	2	  1.4342	-16.0253	 4.62215	C.1
    99	1	  14.274	 10.6752	-12.0421	N.3
   100	2	 15.3591	  10.628	-11.8392	C.1
   101	2	 15.1148	 10.5042	-12.7384	C.1
   102	2	 13.9769	 11.6449	-11.6035	C.1
   103	2	 13.7326	 11.5211	-12.5027	C.1
   104	2	 13.8525	 9.93838	-11.3348	C.1
   105	2	 13.6081	 9.81459	 -12.234	C.1
   106	1	-8.16153	 3.90329	 10.1859	N.3
   107	2	-7.41019	 4.69919	 10.0345	C.1
   108	2	-7.62703	 4.20269	 9.26636	C.1
   109	2	-9.00707	 4.43968	  10.653	C.1
   110	2	-9.22391	 3.94317	 9.88489	C.1
   111	2	-7.74208	 3.31576	 11.0224	C.1
   112	2	-7.95892	 2.81926	 10.2542	C.1
   113	1	-13.3994	-1.30387	-6.97953	N.3
   114	2	-12.3246	-1.29521	-6.72309	C.1
   115	2	-12.5192	-1.47945	-7.62408	C.1
   116	2	-13.7544	-0.323898	-6.61288	C.1
   117	2	 -13.949	-0.508135	-7.51387	C.1
   118	2	-13.8271	-2.01614	-6.25115	C.1
   119	2	-14.0217	-2.20038	-7.15214	C.1
   120	1	 12.8442	-14.7484	-16.2616	N.3
   121	2	 13.8666	-15.1525	-16.1506	C.1
   122	2	 13.4682	-15.2975	-16.9896	C.1
   123	2	  12.959	-13.6881	-15.9727	C.1
   124	2	 12.5606	 -13.833	-16.8117	C.1
   125	2	 12.3046	-15.1871	 -15.403	C.1
   126	2	 11.9062	 -15.332	-16.2419	C.1
   127	1	 17.7704	 3.81758	-4.63542	N.3
   128	2	  18.702	 4.12075	-4.12437	C.1
   129	2	 18.7185	 4.19247	-5.06149	C.1
   130	2	 16.9968	 4.42424	-4.13117	C.1
   131	2	 17.0133	 4.49596	-5.06828	C.1
   132	2	 17.5878	 2.80018	-4.24506	C.1
   133	2	 17.6043	  2.8719	-5.18217	C.1
   134	1	 13.0449	 3.48524	-1.74782	N.3
   135	2	 13.9798	 3.44917	-1.15995	C.1
   136	2	 14.0885	 3.36233	 -2.0896	C.1
   137	2	 12.5739	 4.42795	 -1.4157	C.1
   138	2	 12.6826	  4.3411	-2.34535	C.1
   139	2	 12.4181	 2.70886	-1.27333	C.1
   140	2	 12.5267	 2.62201	-2.20298	C.1
   141	1	 16.1133	-4.11342	 3.89487	N.3
   142	2	 17.2048	-4.16335	 4.05908	C.1
   143	2	 16.9418	-3.94582	 3.18324	C.1
   144	2	 15.7722	-3.41066	 4.67629	C.1
   145	2	 15.5091	-3.19312	 3.80045	C.1
   146	2	 15.7574	-5.09255	 4.26298	C.1
   147	2	 15.4944	-4.87502	 3.38715	C.1
   148	1	-18.4287	-19.9037	 3.60805	N.3
   149	2	-17.4138	-19.9925	 4.03584	C.1
   150	2	-17.4463	-19.8831	 3.10279	C.1
   151	2	-18.8787	-19.0818	 4.19356	C.1
   152	2	-18.9111	-18.9724	 3.26051	C.1
   153	2	 -18.945	 -20.801	 3.99434	C.1
   154	2	-18.9775	-20.6916	 3.06129	C.1
   155	1	 -7.7816	-16.8083	-16.8155	N.3
   156	2	-7.25694	-16.9417	-15.8522	C.1
   157	2	-6.72296	-17.0552	-16.6175	C.1
   158	2	-8.24962	-15.8127	-16.7124	C.1
   159	2	-7.71564	-15.9262	-17.4776	C.1
   160	2	-8.63922	-17.5002	-16.7339	C.1
   161	2	-8.10524	-17.6137	-17.4992	C.1
   162	1	-18.4016	-11.4019	 10.9532	N.3
   163	2	 -17.633	-11.3797	 11.7467	C.1
   164	2	-17.3031	-11.4899	 10.8734	C.1
   165	2	-18.9706	-10.4708	 11.1267	C.1
   166	2	-18.6408	-10.5809	 10.2534	C.1
   167	2	-19.0961	-12.1899	 11.2962	C.1
   168	2	-18.7662	   -12.3	 10.4229	C.1
   169	1	 5.45965	-11.0051	-7.40292	N.3
   170	2	 6.23358	-10.9001	-6.62133	C.1
   171	2	 6.52432	-11.3001	-7.42071	C.1
   172	2	 5.06537	-9.97822	-7.50758	C.1
   173	2	  5.3561	-10.3783	-8.30696	C.1
   174	2	 4.64389	-11.5369	 -6.8808	C.1
   175	2	 4.93462	-11.9369	-7.68018	C.1
   176	1	 15.1966	-10.6944	-18.2761	N.3
   177	2	 16.2437	 -10.577	-17.9432	C.1
   178	2	 16.0518	-10.2218	-18.7921	C.1
   179	2	 14.6163	-10.2594	-17.4425	C.1
   180	2	 14.4244	 -9.9042	-18.2914	C.1
   181	2	 15.0177	-11.7794	-18.1692	C.1
   182	2	 14.8258	-11.4243	-19.0181	C.1
   183	1	-3.29963	-5.96167	 15.1239	N.3
   184	2	-2.26308	-5.78968	  14.782	C.1
   185	2	-2.92611	-5.66282	 14.1278	C.1
   186	2	-3.38433	-5.30931	 16.0116	C.1
   187	2	-4.04736	-5.18245	 15.3575	C.1
   188	2	-3.25695	-6.97632	 15.5592	C.1
   189	2	-3.91997	-6.84946	 14.9051	C.1
   190	1	 3.91347	-14.6175	0.538665	N.3
   191	2	 4.95738	-14.8316	0.830706	C.1
   192	2	 4.82849	-14.6393	-0.0803291	C.1
   193	2	 3.61615	-13.8132	 1.23549	C.1
   194	2	 3.48726	-13.6208	0.324458	C.1
   195	2	  3.3602	-15.4962	0.916349	C.1
   196	2	 3.23131	-15.3038	0.00531364	C.1
   197	1	 -18.984	0.256313	-7.96515	N.3
   198	2	-18.0198	0.277639	-7.42586	C.1
   199	2	-17.9705	-0.000601617	-8.32237	C.1
   200	2	-19.3825	 1.27521	-7.81053	C.1
   201	2	-19.3331	0.996968	-8.70704	C.1
   202	2	-19.6238	-0.366548	-7.31428	C.1
   203	2	-19.5744	-0.644789	 -8.2108	C.1
   204	1	 2.30313	-19.9891	 -10.317	N.3
   205	2	 3.40061	-19.9945	-10.1889	C.1
   206	2	 3.10098	-19.8264	-11.0639	C.1
   207	2	 1.96361	-19.2632	-9.55631	C.1
   208	2	 1.66398	-19.0951	-10.4313	C.1
   209	2	 1.99461	-20.9618	-9.89323	C.1
   210	2	 1.69498	-20.7937	-10.7682	C.1
   211	1	-8.28808	 9.90328	-0.99471	N.3
   212	2	-7.41315	 9.64918	-0.369545	C.1
   213	2	-7.29731	  9.5154	-1.29274	C.1
   214	2	-8.51926	 10.9415	-0.695614	C.1
   215	2	-8.40342	 10.8077	-1.61881	C.1
   216	2	-9.10559	  9.3198	-0.534183	C.1
   217	2	-8.98975	 9.18602	-1.45738	C.1
   218	1	-6.41169	 14.6597	 19.1528	N.3
   219	2	-5.36065	 14.8367	 19.4441	C.1
   220	2	-5.47939	 14.4135	 18.6132	C.1
   221	2	-6.87007	 15.6612	 19.2399	C.1
   222	2	-6.98881	 15.2381	  18.409	C.1
   223	2	-6.82623	 14.1158	 20.0207	C.1
   224	2	-6.94497	 13.6927	 19.1897	C.1
   225	1	-2.36905	-15.7627	 19.0832	N.3
   226	2	-1.91843	-16.2914	 19.9425	C.1
   227	2	-1.31395	-16.0317	 19.2711	C.1
   228	2	-2.92625	-14.9358	 19.5594	C.1
   229	2	-2.32177	-14.6762	  18.888	C.1
   230	2	-3.16918	-16.4503	 18.7549	C.1
   231	2	 -2.5647	-16.1906	 18.0835	C.1
   232	1	 3.12546	-1.38234	 0.79188	N.3
   233	2	 3.69595	-0.605002	  1.3315	C.1
   234	2	 4.10664	-0.934069	0.552621	C.1
   235	2	   2.138	-0.910668	0.639169	C.1
   236	2	 2.54869	-1.23974	-0.13971	C.1
   237	2	 2.92639	-2.13773	 1.57329	C.1
   238	2	 3.33708	 -2.4668	 0.79441	C.1
   239	1	-1.41877	-6.50967	-17.2761	N.3
   240	2	-0.394354	 -6.4776	-16.8633	C.1
   241	2	-0.450522	-6.41075	-17.7992	C.1
   242	2	-1.94193	-5.71391	-16.7158	C.1
   243	2	 -1.9981	-5.64705	-17.6518	C.1
   244	2	-1.83577	-7.43779	-16.8453	C.1
   245	2	-1.89193	-7.37094	-17.7813	C.1
   246	1	 3.44088	 1.75682	 8.74411	N.3
   247	2	 4.21304	0.979113	 8.88495	C.1
   248	2	  3.9681	 1.14233	 7.99222	C.1
   249	2	 3.85695	 2.62655	 9.28385	C.1
   250	2	 3.61201	 2.78976	 8.39112	C.1
   251	2	 2.62006	 1.41998	 9.40263	C.1
   252	2	 2.37511	 1.58319	  8.5099	C.1
   253	1	 2.52763	 -14.132	-5.97374	N.3
   254	2	 3.36597	-14.0991	-5.25472	C.1
   255	2	   3.579	-14.4468	-6.10165	C.1
   256	2	  2.1534	-13.0923	-5.97309	C.1
   257	2	 2.36642	-13.4401	-6.82002	C.1
   258	2	 1.74397	-14.6828	-5.42303	C.1
   259	2	   1.957	-15.0306	-6.26996	C.1
   260	1	 6.93868	-18.8328	0.493366	N.3
   261	2	 7.96067	-19.0278	0.865384	C.1
   262	2	 7.88994	-18.9059	-0.0639911	C.1
   263	2	 6.60592	-17.9759	 1.10646	C.1
   264	2	 6.53519	 -17.854	 0.17708	C.1
   265	2	 6.35553	-19.6775	0.902322	C.1
   266	2	  6.2848	-19.5556	-0.0270526	C.1
   267	1	-6.48736	-11.8879	-17.9809	N.3
   268	2	-5.47388	-11.9268	-17.5424	C.1
   269	2	-5.50418	-11.9461	-18.4818	C.1
   270	2	-6.92991	-10.9892	-17.5147	C.1
   271	2	 -6.9602	-11.0085	-18.4541	C.1
   272	2	-7.01286	-12.7187	-17.4765	C.1
   273	2	-7.04315	 -12.738	-18.4158	C.1
   274	1	 15.4331	-0.0307726	-12.8439	N.3
   275	2	 16.2347	-0.108961	-12.0874	C.1
   276	2	 16.5254	-0.124691	-12.9812	C.1
   277	2	 14.8896	0.882785	-12.5425	C.1
   278	2	 15.1803	0.867055	-13.4362	C.1
   279	2	 14.7389	-0.842547	-12.5611	C.1
   280	2	 15.0296	-0.858277	-13.4549	C.1
   281	1	 10.0998	-19.8834	-11.2492	N.3
   282	2	 10.4034	-20.5556	-10.4265	C.1
   283	2	 10.9261	-20.6157	-11.2054	C.1
   284	2	  10.084	-18.8881	-10.7695	C.1
   285	2	 10.6067	-18.9483	-11.5484	C.1
   286	2	 9.02808	-20.1162	-11.3833	C.1
   287	2	 9.55079	-20.1763	-12.1622	C.1
   288	1	-1.20859	-10.4667	 9.78413	N.3
   289	2	-0.252329	-10.2636	 9.26913	C.1
   290	2	-1.01248	 -10.262	 8.71616	C.1
   291	2	 -1.2193	-9.72161	    10.6	C.1
   292	2	-1.97945	-9.72002	  10.047	C.1
   293	2	-1.01391	-11.4172	 10.3127	C.1
   294	2	-1.77406	-11.4156	 9.75977	C.1
   295	1	-12.6386	 12.6182	-14.0952	N.3
   296	2	 -11.569	 12.6559	-13.8206	C.1
   297	2	-11.7477	  12.715	-14.7415	C.1
   298	2	-13.0863	 13.4174	-13.4773	C.1
   299	2	 -13.265	 13.4765	-14.3982	C.1
   300	2	-12.9925	 11.6927	-13.6063	C.1
   301	2	-13.1712	 11.7519	-14.5272	C.1
   302	1	-10.0555	0.713763	-18.0549	N.3
   303	2	-8.99491	0.988127	-17.9107	C.1
   304	2	 -9.1641	0.411665	-18.6337	C.1
   305	2	-10.5651	 1.69286	-18.1052	C.1
   306	2	-10.7343	  1.1164	-18.8282	C.1
   307	2	-10.3527	0.324995	-17.0642	C.1
   308	2	-10.5219	-0.251468	-17.7872	C.1
   309	1	-4.74354	 16.1866	-10.9291	N.3
   310	2	-3.72073	 16.4396	-10.5963	C.1
   311	2	-3.87228	 16.5215	-11.5204	C.1
   312	2	-5.38179	  16.823	-10.2899	C.1
   313	2	-5.53333	 16.9048	 -11.214	C.1
   314	2	-4.90078	 15.1744	-10.5149	C.1
   315	2	-5.05233	 15.2563	 -11.439	C.1
   316	1	    2.67	-17.3801	 17.0143	N.3
   317	2	 3.59771	-17.3577	 17.6141	C.1
   318	2	 3.72407	-17.3807	 16.6829	C.1
   319	2	 2.10489	-16.5083	 17.3905	C.1
   320	2	 2.23126	-16.5313	 16.4593	C.1
   321	2	 2.11784	-18.2397	  17.435	C.1
   322	2	 2.24421	-18.2627	 16.5038	C.1
   323	1	  19.116	 9.77184	-19.4056	N.3
   324	2	 19.8033	 9.62318	-18.5533	C.1
   325	2	 20.2076	 9.93115	 -19.344	C.1
   326	2	 18.3355	 10.4334	-18.9883	C.1
   327	2	 18.7399	 10.7413	 -19.779	C.1
   328	2	 18.6026	   8.797	-19.4891	C.1
   329	2	 19.0069	 9.10496	-20.2798	C.1
   330	1	 2.46229	-13.2659	 11.6703	N.3
   331	2	 3.15036	-12.4832	 12.0376	C.1
   332	2	 3.39943	-12.8855	 11.2253	C.1
   333	2	 1.48191	-12.7563	 11.6612	C.1
   334	2	 1.73098	-13.1586	  10.849	C.1
   335	2	 2.38101	-13.9547	 12.5304	C.1
   336	2	 2.63008	-14.3569	 11.7182	C.1
   337	1	 8.35399	 12.4986	 3.36783	N.3
   338	2	 9.18342	 12.3155	 4.07453	C.1
   339	2	  9.3969	 12.1936	 3.16724	C.1
   340	2	 8.01157	 13.5138	 3.63785	C.1
   341	2	 8.22504	  13.392	 2.73055	C.1
   342	2	 7.54678	 11.8493	 3.75206	C.1
   343	2	 7.76025	 11.7274	 2.84477	C.1
   344	1	  7.7556	 9.76769	-2.86197	N.3
   345	2	 8.57698	 9.52387	-2.16426	C.1
   346	2	 8.77505	 9.39829	-3.07453	C.1
   347	2	 7.48155	 10.7999	-2.57866	C.1
   348	2	 7.67962	 10.6743	-3.48893	C.1
   349	2	 6.91118	 9.16764	-2.47759	C.1
   350	2	 7.10925	 9.04206	-3.38786	C.1
   351	1	-13.3519	-10.7598	-2.41579	N.3
   352	2	-12.2715	-10.8036	-2.64327	C.1
   353	2	-12.8084	-10.4363	-3.32183	C.1
   354	2	-13.3851	-10.2254	-1.44924	C.1
   355	2	 -13.922	-9.85815	 -2.1278	C.1
   356	2	-13.5938	-11.8012	-2.13702	C.1
   357	2	-14.1307	 -11.434	-2.81558	C.1
   358	1	-16.3957	 13.3952	 12.7614	N.3
   359	2	-16.1311	 13.9287	 13.6921	C.1
   360	2	-15.4862	 13.9714	 13.0096	C.1
   361	2	-17.3838	 13.8157	 12.5014	C.1
   362	2	-16.7389	 13.8584	 11.8188	C.1
   363	2	-16.6396	  12.377	 13.1146	C.1
   364	2	-15.9947	 12.4197	 12.4321	C.1
   365	1	 3.57391	-9.55439	 2.60505	N.3
   366	2	 4.60506	-9.60361	 2.99902	C.1
   367	2	 4.53107	-9.66302	 2.06382	C.1
   368	2	  3.1778	-8.62366	 3.04969	C.1
   369	2	 3.10381	-8.68306	 2.11449	C.1
   370	2	 3.04985	-10.3468	 3.16926	C.1
   371	2	 2.97586	-10.4062	 2.23406	C.1
   372	1	-8.16385	-5.16391	-2.55527	N.3
   373	2	-7.46093	-6.00986	-2.44959	C.1
   374	2	-7.65128	-5.75632	-3.33451	C.1
   375	2	-7.70756	-4.37656	-1.92858	C.1
   376	2	-7.89792	-4.12302	 -2.8135	C.1
   377	2	-9.03753	-5.48562	-1.96025	C.1
   378	2	-9.22788	-5.23208	-2.84517	C.1
   379	1	 -1.8758	 2.35598	-18.7726	N.3
   380	2	-0.850121	 2.38037	-18.3624	C.1
   381	2	-0.906425	 2.40886	-19.3003	C.1
   382	2	-2.37825	 3.18738	-18.2461	C.1
   383	2	-2.43455	 3.21586	 -19.184	C.1
   384	2	-2.31457	 1.45747	-18.3025	C.1
   385	2	-2.37088	 1.48595	-19.2404	C.1
   386	1	-4.59546	-10.0046	 2.29182	N.3
   387	2	 -3.6022	-10.0252	 2.77547	C.1
   388	2	-3.58914	-10.0152	 1.83561	C.1
   389	2	-5.08847	-9.13591	 2.76432	C.1
   390	2	-5.07541	-9.12587	 1.82446	C.1
   391	2	-5.11528	-10.8676	 2.74545	C.1
   392	2	-5.10222	-10.8576	 1.80559	C.1
   393	1	 3.96207	 17.4052	 13.5305	N.3
   394	2	 4.59371	  17.759	 14.3651	C.1
   395	2	 5.02077	 17.7215	 13.5286	C.1
   396	2	 3.08211	 18.0716	 13.5795	C.1
   397	2	 3.50916	  18.034	 12.7429	C.1
   398	2	 3.56982	 16.4412	 13.9016	C.1
   399	2	 3.99687	 16.4036	  13.065	C.1
   400	1	 4.12652	 3.24189	 13.9404	N.3
   401	2	  4.8308	 3.50414	 14.7504	C.1
   402	2	 5.19506	 3.51746	 13.8839	C.1
   403	2	 3.28191	 3.93479	 14.1058	C.1
   404	2	 3.64616	 3.94811	 13.2394	C.1
   405	2	 3.72047	 2.26677	 14.2646	C.1
   406	2	 4.08472	 2.28009	 13.3981	C.1
   407	1	-19.1534	 1.88173	 4.62948	N.3
   408	2	-18.2484	 2.42707	 4.30635	C.1
   409	2	 -18.609	 1.83774	 3.66898	C.1
   410	2	-19.8311	 2.68985	 4.95886	C.1
   411	2	-20.1917	 2.10051	 4.32148	C.1
   412	2	-18.8398	 1.41228	 5.57928	C.1
   413	2	-19.2004	0.822945	 4.94191	C.1
   414	1	-1.65943	-13.5356	-12.9583	N.3
   415	2	-0.660282	-13.5272	-12.4866	C.1
   416	2	-0.658584	-13.5431	-13.4264	C.1
   417	2	-2.16065	 -12.662	-12.5039	C.1
   418	2	-2.15896	-12.6779	-13.4438	C.1
   419	2	-2.15991	-14.3937	-12.4746	C.1
   420	2	-2.15821	-14.4096	-13.4145	C.1
   421	1	 13.7754	-12.0466	-0.639164	N.3
   422	2	 14.7965	-12.4252	-0.452093	C.1
   423	2	 14.3864	-12.7501	-1.23305	C.1
   424	2	 13.9008	-10.9497	-0.595615	C.1
   425	2	 13.4907	-11.2746	-1.37658	C.1
   426	2	 13.2441	-12.2776	0.301656	C.1
   427	2	  12.834	-12.6025	-0.479304	C.1
   428	1	 13.9506	 7.43688	-19.4146	N.3
   429	2	 14.7446	 7.51383	-18.6501	C.1
   430	2	 15.0189	 7.69393	 -19.531	C.1
   431	2	 13.1585	 8.10089	-19.0239	C.1
   432	2	 13.4328	 8.28099	-19.9048	C.1
   433	2	 13.5371	 6.42577	-19.2485	C.1
   434	2	 13.8114	 6.60587	-20.1294	C.1
   435	1	-3.32406	 2.95493	 -1.7321	N.3
   436	2	-2.42089	 2.63928	-1.17934	C.1
   437	2	-2.54244	 2.22711	-2.01537	C.1
   438	2	-3.23147	 4.05562	-1.75977	C.1
   439	2	-3.35303	 3.64344	-2.59579	C.1
   440	2	 -4.1375	 2.78815	-1.00315	C.1
   441	2	-4.25905	 2.37598	-1.83917	C.1
   442	1	-16.2136	 10.0336	-6.45283	N.3
   443	2	-15.3456	 10.0398	-5.76923	C.1
   444	2	-15.1575	 10.2862	-6.65665	C.1
   445	2	-16.9491	 10.6738	-5.93314	C.1
   446	2	-16.7609	 10.9202	-6.82057	C.1
   447	2	-16.6285	 9.01748	-6.32499	C.1
   448	2	-16.4404	 9.26383	-7.21242	C.1
   449	1	 -11.762	 13.7073	-16.9166	N.3
   450	2	-10.6991	 13.7363	-16.6159	C.1
   451	2	-10.8522	 13.7254	-17.5433	C.1
   452	2	-12.2004	 14.5666	-16.3779	C.1
   453	2	-12.3534	 14.5558	-17.3053	C.1
   454	2	-12.1569	 12.8352	-16.3648	C.1
   455	2	-12.3099	 12.8244	-17.2922	C.1
   456	1	 6.22907	 10.1663	-8.24674	N.3
   457	2	 7.24462	 10.5751	  -8.097	C.1
   458	2	 6.75655	 10.9642	-8.79983	C.1
   459	2	 5.76895	 10.2602	-7.24658	C.1
   460	2	 5.28088	 10.6494	-7.94941	C.1
   461	2	 6.40574	 9.07975	-8.34238	C.1
   462	2	 5.91768	 9.46888	-9.04521	C.1
   463	1	-16.2624	-3.39603	-5.95146	N.3
   464	2	-15.7185	-2.61431	-5.39109	C.1
   465	2	-15.2501	-2.98517	-6.11679	C.1
   466	2	-17.2168	 -2.9033	-6.21055	C.1
   467	2	-16.7484	-3.27416	-6.93625	C.1
   468	2	-16.5545	 -4.1142	 -5.1642	C.1
   469	2	 -16.086	-4.48505	-5.88989	C.1
   470	1	-4.26324	 8.39792	 11.3947	N.3
   471	2	-3.32521	 8.51412	 11.9669	C.1
   472	2	-3.25607	 8.68939	  11.046	C.1
   473	2	 -4.9751	 9.04066	 11.9433	C.1
   474	2	-4.90596	 9.21593	 11.0224	C.1
   475	2	-4.59311	 7.37606	 11.6552	C.1
   476	2	-4.52397	 7.55133	 10.7342	C.1
   477	1	-9.70788	-12.8565	-4.63877	N.3
   478	2	-8.69456	-12.5928	-4.28582	C.1
   479	2	-8.76275	-12.7754	-5.20538	C.1
   480	2	-10.3274	 -12.015	-4.27949	C.1
   481	2	-10.3956	-12.1976	-5.19906	C.1
   482	2	-9.99944	-13.6876	-3.97165	C.1
   483	2	-10.0676	-13.8702	-4.89122	C.1
   484	1	0.304036	-2.09165	 9.45531	N.3
   485	2	 1.38235	-2.07792	 9.69606	C.1
   486	2	 1.16713	-1.84362	 8.81153	C.1
   487	2	-0.136857	-1.44327	 10.2338	C.1
   488	2	-0.352072	-1.20896	 9.34929	C.1
   489	2	-0.0105573	-3.10521	 9.76284	C.1
   490	2	-0.225773	 -2.8709	 8.87832	C.1
   491	1	 15.8284	-2.19018	-11.4725	N.3
   492	2	 16.7855	-1.92199	-10.9899	C.1
   493	2	 16.8177	-1.99966	-11.9262	C.1
   494	2	 15.1288	-1.42615	-11.0881	C.1
   495	2	 15.1611	-1.50381	-12.0243	C.1
   496	2	 15.5224	-3.10589	-10.9352	C.1
   497	2	 15.5546	-3.18356	-11.8715	C.1
   498	1	 14.6221	-1.39467	-7.31994	N.3
   499	2	  15.668	-1.41369	-6.96398	C.1
   500	2	  15.559	-1.52609	-7.89084	C.1
   501	2	  14.234	-0.443537	-6.91299	C.1
   502	2	  14.125	-0.555944	-7.83985	C.1
   503	2	 14.1278	-2.15817	-6.69255	C.1
   504	2	 14.0188	-2.27057	-7.61942	C.1
   505	1	-18.0322	-5.75302	-18.9894	N.3
   506	2	-17.5145	-6.24763	-18.1479	C.1
   507	2	-17.0195	-6.19279	-18.9451	C.1
   508	2	-18.3415	-4.78284	-18.5606	C.1
   509	2	-17.8465	-4.72799	-19.3578	C.1
   510	2	 -18.983	-6.31086	 -19.064	C.1
   511	2	-18.4881	-6.25602	-19.8612	C.1
   512	1	-9.70098	-9.27537	-17.2387	N.3
   513	2	-8.82468	-9.06064	-16.6008	C.1
   514	2	 -8.6887	-8.93525	-17.5224	C.1
   515	2	-10.4971	-8.65283	-16.7921	C.1
   516	2	-10.3611	-8.52744	-17.7137	C.1
   517	2	-9.98511	-10.3007	-16.9407	C.1
   518	2	-9.84913	-10.1753	-17.8623	C.1
   519	1	-14.7915	-9.47543	-1.68602	N.3
   520	2	-13.7735	-9.40138	-1.26295	C.1
   521	2	-13.8375	-9.22515	-2.18406	C.1
   522	2	-15.3841	-8.80566	-1.03707	C.1
   523	2	-15.4481	-8.62943	-1.95818	C.1
   524	2	 -15.121	-10.4836	-1.37638	C.1
   525	2	 -15.185	-10.3074	-2.29749	C.1
   526	1	-19.0227	 -7.7665	-3.86121	N.3
   527	2	-18.4389	-7.01743	-3.29648	C.1
   528	2	-18.0369	-7.32273	-4.08944	C.1
   529	2	-20.0045	 -7.2764	-3.99048	C.1
   530	2	-19.6025	 -7.5817	-4.78344	C.1
   531	2	-19.2277	-8.54773	-3.10721	C.1
   532	2	-18.8257	-8.85303	-3.90018	C.1
   533	1	 8.36424	-3.58329	-9.02821	N.3
   534	2	 9.17389	 -3.9748	-8.38626	C.1
   535	2	 9.45486	-3.60623	-9.20407	C.1
   536	2	 7.82568	-2.88779	-8.35956	C.1
   537	2	 8.10665	-2.51922	-9.17736	C.1
   538	2	 7.67169	-4.44015	-9.11209	C.1
   539	2	 7.95266	-4.07157	 -9.9299	C.1
   540	1	 13.7848	 4.32676	 11.7724	N.3
   541	2	 14.7998	 4.30029	  12.208	C.1
   542	2	 14.7685	  4.3677	  11.271	C.1
   543	2	 13.2965	 5.15319	 12.3196	C.1
   544	2	 13.2652	 5.22059	 11.3825	C.1
   545	2	 13.3049	 3.42569	  12.195	C.1
   546	2	 13.2736	 3.49309	  11.258	C.1
   547	1	-15.0996	 19.4832	 2.36346	N.3
   548	2	 -14.234	 19.2987	 3.02497	C.1
   549	2	-14.0204	  19.475	 2.12671	C.1
   550	2	-15.6474	 20.2898	 2.88331	C.1
   551	2	-15.4337	 20.4661	 1.98505	C.1
   552	2	-15.7379	 18.5967	 2.52949	C.1
   553	2	-15.5242	  18.773	 1.63123	C.1
   554	1	0.448346	-3.92927	-2.85011	N.3
   555	2	 1.44354	-3.87353	-2.37325	C.1
   556	2	 1.45142	-3.90298	-3.31276	C.1
   557	2	-0.0904687	 -3.0702	-2.41131	C.1
   558	2	-0.0825817	-3.09965	-3.35082	C.1
   559	2	-0.0198599	-4.79989	 -2.3565	C.1
   560	2	-0.0119729	-4.82934	  -3.296	C.1
   561	1	-4.14232	-11.6144	-7.99158	N.3
   562	2	-3.15016	-11.6035	-7.50538	C.1
   563	2	-3.13489	-11.6018	-8.44525	C.1
   564	2	-4.66012	-10.7553	-7.52833	C.1
   565	2	-4.64485	-10.7535	-8.46821	C.1
   566	2	-4.63959	-12.4872	 -7.5312	C.1
   567	2	-4.62433	-12.4854	-8.47108	C.1
   568	1	-12.6053	-3.55497	-3.50896	N.3
   569	2	-11.6154	-3.27729	-3.10405	C.1
   570	2	-11.8444	-2.86585	-3.91762	C.1
   571	2	-13.2901	-3.34587	-2.66745	C.1
   572	2	-13.5191	-2.93443	-3.48102	C.1
   573	2	-12.5669	-4.65892	-3.53501	C.1
   574	2	-12.7959	-4.24748	-4.34858	C.1
   575	1	 -17.598	 15.3315	 2.77086	N.3
   576	2	-16.7408	 15.7815	 3.30335	C.1
   577	2	-16.6578	  15.749	 2.36759	C.1
   578	2	-18.4609	 15.9105	 3.14636	C.1
   579	2	-18.3779	  15.878	 2.21059	C.1
   580	2	-17.7168	 14.3511	  3.2665	C.1
   581	2	-17.6338	 14.3186	 2.33074	C.1
   582	1	 4.58807	 18.7563	-10.8487	N.3
   583	2	 4.87499	 18.3057	-9.88148	C.1
   584	2	 5.59021	 18.5016	-10.4591	C.1
   585	2	 3.97338	 19.6246	-10.5504	C.1
   586	2	 4.68859	 19.8206	 -11.128	C.1
   587	2	 3.84301	 18.0446	-11.2478	C.1
   588	2	 4.55823	 18.2406	-11.8254	C.1
   589	1	 5.10247	-9.21063	  12.111	N.3
   590	2	 5.90452	-8.60961	 12.5762	C.1
   591	2	 6.11992	-8.98699	 11.7427	C.1
   592	2	  4.2401	-8.51988	 12.1055	C.1
   593	2	 4.45549	-8.89727	 11.2719	C.1
   594	2	 4.83971	-9.93632	 12.9017	C.1
   595	2	  5.0551	-10.3137	 12.0682	C.1
   596	1	-9.00819	 -4.8976	-8.46987	N.3
   597	2	-8.14364	 -4.8338	-7.78477	C.1
   598	2	-7.92805	-4.85872	-8.69938	C.1
   599	2	 -9.6402	-4.04626	-8.15899	C.1
   600	2	-9.42461	-4.07118	 -9.0736	C.1
   601	2	-9.56413	-5.77537	-8.09395	C.1
   602	2	-9.34855	-5.80029	-9.00856	C.1
   603	1	 8.29185	-10.1928	 17.5406	N.3
   604	2	  9.3589	-10.4174	  17.719	C.1
   605	2	    9.13	-10.2497	 16.8228	C.1
   606	2	 8.08794	-9.36286	  18.241	C.1
   607	2	 7.85903	-9.19515	 17.3448	C.1
   608	2	 7.77208	-11.0495	  18.006	C.1
   609	2	 7.54317	-10.8818	 17.1099	C.1
   610	1	-1.65103	-4.60627	-15.1066	N.3
   611	2	-0.937358	-3.78304	-14.9225	C.1
   612	2	-1.10022	-3.97612	 -15.828	C.1
   613	2	-2.53968	-4.30538	-14.5229	C.1
   614	2	-2.70254	-4.49846	-15.4284	C.1
   615	2	-1.23176	-5.44077	-14.5161	C.1
   616	2	-1.39462	-5.63385	-15.4215	C.1
   617	1	-12.2699	-9.08181	 7.22297	N.3
   618	2	-11.4451	-9.74959	  7.5308	C.1
   619	2	-11.7529	-9.87361	 6.65134	C.1
   620	2	-11.8751	-8.07398	 7.44504	C.1
   621	2	 -12.183	  -8.198	 6.56558	C.1
   622	2	-13.0276	-9.23585	 8.01228	C.1
   623	2	-13.3354	-9.35987	 7.13281	C.1
   624	1	  14.346	 11.4532	 18.1058	N.3
   625	2	 15.3217	 11.7064	 18.5581	C.1
   626	2	 15.3428	 11.5294	 17.6352	C.1
   627	2	 13.7007	 12.2977	 18.4078	C.1
   628	2	 13.7218	 12.1207	 17.4848	C.1
   629	2	 13.9839	 10.6208	 18.7358	C.1
   630	2	 14.0049	 10.4438	 17.8128	C.1
   631	1	 3.95746	-12.2653	  18.556	N.3
   632	2	 4.83987	-12.0024	 19.1668	C.1
   633	2	 4.91505	-11.8064	 18.2506	C.1
   634	2	 3.12761	-11.7566	 19.0789	C.1
   635	2	 3.20279	-11.5607	 18.1626	C.1
   636	2	 3.79212	 -13.331	 18.7967	C.1
   637	2	  3.8673	 -13.135	 17.8805	C.1
   638	1	-15.4416	 11.7498	-14.1292	N.3
   639	2	-14.4415	 11.7498	-13.6593	C.1
   640	2	-14.4416	 11.7498	-14.5993	C.1
   641	2	-15.9415	 12.6158	-13.6592	C.1
   642	2	-15.9416	 12.6158	-14.5992	C.1
   643	2	-15.9416	 10.8838	-13.6592	C.1
   644	2	-15.9417	 10.8838	-14.5992	C.1
   645	1	-7.15432	 2.54958	 10.6624	N.3
   646	2	-6.15338	 2.55074	 11.1304	C.1
   647	2	-6.15526	 2.54973	 10.1904	C.1
   648	2	-7.65394	 3.41576	 11.1325	C.1
   649	2	-7.65583	 3.41475	 10.1925	C.1
   650	2	-7.65281	 1.68376	 11.1343	C.1
   651	2	-7.65469	 1.68275	 10.1943	C.1
   652	1	  1.7386	-7.36847	-19.6312	N.3
   653	2	 2.82509	-7.50304	-19.4817	C.1
   654	2	 2.55195	-7.42003	-20.3773	C.1
   655	2	 1.49981	-6.50461	 -18.985	C.1
   656	2	 1.22667	-6.42159	-19.8806	C.1
   657	2	 1.30061	-8.22229	-19.0834	C.1
   658	2	 1.02748	-8.13928	 -19.979	C.1
   659	1	 17.6283	-3.09791	  15.921	N.3
   660	2	 18.3263	-3.70388	 16.5264	C.1
   661	2	 18.7325	-3.13129	 15.9013	C.1
   662	2	 17.0042	-2.59583	 16.6821	C.1
   663	2	 17.4104	-2.02325	  16.057	C.1
   664	2	  16.945	 -3.8529	 15.4921	C.1
   665	2	 17.3513	-3.28031	  14.867	C.1
   666	1	 15.8912	-15.6668	-4.15529	N.3
   667	2	 16.7717	-16.2785	-3.88792	C.1
   668	2	 16.7213	-16.0236	 -4.7913	C.1
   669	2	 15.9351	-14.8317	-3.43307	C.1
   670	2	 15.8847	-14.5768	-4.33646	C.1
   671	2	 15.0424	-16.2725	 -3.7898	C.1
   672	2	 14.9921	-16.0176	-4.69318	C.1
   673	1	 -14.793	-17.1491	-3.78483	N.3
   674	2	-14.0194	-17.5532	-3.10722	C.1
   675	2	-13.7768	-17.5171	-4.01466	C.1
   676	2	-15.0464	-16.1759	-3.32703	C.1
   677	2	-14.8038	-16.1398	-4.23448	C.1
   678	2	-15.6771	-17.7722	-3.55907	C.1
   679	2	-15.4345	-17.7361	-4.46651	C.1
   680	1	-7.81707	-2.84899	 11.3586	N.3
   681	2	-6.73612	 -2.7997	 11.5823	C.1
   682	2	-6.95463	-2.82338	 10.6683	C.1
   683	2	-8.23027	-1.99075	 11.9185	C.1
   684	2	-8.44878	-2.01443	 11.0046	C.1
   685	2	-8.15704	-3.72099	 11.9458	C.1
   686	2	-8.37554	-3.74466	 11.0319	C.1
   687	1	 15.2317	 3.73077	 15.1386	N.3
   688	2	 16.0343	  3.8332	 15.8911	C.1
   689	2	 16.3267	 3.77992	 14.9994	C.1
   690	2	 14.5639	 4.58164	 15.3642	C.1
   691	2	 14.8563	 4.52835	 14.4725	C.1
   692	2	 14.6583	 2.85741	 15.4982	C.1
   693	2	 14.9507	 2.80413	 14.6065	C.1
   694	1	-17.7349	-17.2691	 5.80911	N.3
   695	2	-16.6737	-17.5479	 5.67818	C.1
   696	2	-17.1522	-17.4101	 4.88091	C.1
   697	2	-17.6852	-16.3959	 6.48429	C.1
   698	2	-18.1637	-16.2581	 5.68702	C.1
   699	2	-18.1279	-18.0702	 6.46076	C.1
   700	2	-18.6065	-17.9324	 5.66349	C.1
   701	1	-12.4388	-15.3198	 7.67098	N.3
   702	2	-11.3975	-15.2484	 8.03364	C.1
   703	2	-11.4992	-15.2114	 7.09988	C.1
   704	2	-12.9571	-14.5215	 8.23219	C.1
   705	2	-13.0587	-14.4844	 7.29844	C.1
   706	2	-12.8094	-16.2451	 8.14776	C.1
   707	2	-12.9111	-16.2081	   7.214	C.1
   708	1	 10.2914	 18.5011	 0.59055	N.3
   709	2	 11.2101	 17.9188	0.396086	C.1
   710	2	 10.6237	 17.9964	-0.334492	C.1
   711	2	 10.6778	 19.4575	0.986797	C.1
   712	2	 10.0914	 19.5351	0.256218	C.1
   713	2	 9.86601	 18.0108	 1.48463	C.1
   714	2	 9.27964	 18.0884	0.754056	C.1
   715	1	-0.717121	 11.3752	-16.6952	N.3
   716	2	0.286428	 11.3216	-16.2359	C.1
   717	2	0.279221	 11.4449	-17.1678	C.1
   718	2	-1.21966	  12.168	-16.1123	C.1
   719	2	-1.22686	 12.2913	-17.0442	C.1
   720	2	-1.20732	  10.451	-16.3395	C.1
   721	2	-1.21453	 10.5743	-17.2714	C.1
   722	1	-11.8095	-10.8076	 7.85233	N.3
   723	2	-10.7167	-10.6453	 7.83557	C.1
   724	2	-11.1911	-10.2462	 7.12897	C.1
   725	2	-12.0996	-10.4693	 8.86341	C.1
   726	2	 -12.574	-10.0702	 8.15681	C.1
   727	2	-11.9007	-11.9068	 7.91791	C.1
   728	2	-12.3751	-11.5077	 7.21132	C.1
   729	1	-18.3305	  1.4962	 11.7308	N.3
   730	2	-17.5898	 1.95626	 12.4094	C.1
   731	2	-17.4755	 2.15627	 11.4981	C.1
   732	2	-19.2979	 1.80954	  12.163	C.1
   733	2	-19.1836	 2.00954	 11.2516	C.1
   734	2	-18.2753	0.422794	 11.9869	C.1
   735	2	-18.1609	0.622803	 11.0756	C.1
   736	1	 2.02643	-3.72995	 19.0157	N.3
   737	2	 2.65912	-4.38158	  19.645	C.1
   738	2	 2.95599	-4.26984	 18.7601	C.1
   739	2	 1.95387	-2.80005	 19.6081	C.1
   740	2	 2.25074	-2.68832	 18.7232	C.1
   741	2	   1.021	-4.17581	 19.1214	C.1
   742	2	 1.31787	-4.06408	 18.2365	C.1
   743	1	-19.1828	 2.29088	-6.19053	N.3
   744	2	-18.2208	 2.64715	-5.77994	C.1
   745	2	-18.1948	 2.37242	-6.67852	C.1
   746	2	-19.8743	 3.12499	 -5.9739	C.1
   747	2	-19.8483	 2.85026	-6.87248	C.1
   748	2	-19.4923	 1.51259	-5.46987	C.1
   749	2	-19.4663	 1.23786	-6.36845	C.1
   750	1	-14.2699	 8.03722	-11.6829	N.3
   751	2	-13.2249	  8.0569	-11.3246	C.1
   752	2	-13.3581	 8.40412	-12.1879	C.1
   753	2	-14.8228	 8.55411	-10.8779	C.1
   754	2	 -14.956	 8.90133	-11.7412	C.1
   755	2	-14.5622	 6.97981	-11.5513	C.1
   756	2	-14.6954	 7.32703	-12.4146	C.1
   757	1	 -9.7357	-7.97159	 -17.682	N.3
   758	2	-8.63579	-8.07676	-17.6892	C.1
   759	2	-9.00079	-7.64219	-18.4385	C.1
   760	2	-9.93642	 -7.4832	-16.7114	C.1
   761	2	-10.3014	-7.04862	-17.4608	C.1
   762	2	-10.0874	-9.00667	-17.5214	C.1
   763	2	-10.4524	-8.57209	-18.2708	C.1
   764	1	-14.1394	 14.8246	 19.8104	N.3
   765	2	 -13.104	 14.7557	 20.1901	C.1
   766	2	 -13.182	 14.8736	 19.2608	C.1
   767	2	-14.5808	 15.6298	 20.4249	C.1
   768	2	-14.6588	 15.7477	 19.4956	C.1
   769	2	-14.6163	 13.9116	   20.21	C.1
   770	2	-14.6943	 14.0294	 19.2807	C.1
   771	1	-16.1091	 12.7489	 4.05762	N.3
   772	2	 -15.471	 12.7392	 4.95966	C.1
   773	2	-15.0694	  12.396	 4.18216	C.1
   774	2	-16.4372	 13.8019	 3.99153	C.1
   775	2	-16.0356	 13.4587	 3.21402	C.1
   776	2	-17.0215	 12.2203	 4.38791	C.1
   777	2	-16.6199	 11.8771	 3.61041	C.1
   778	1	 2.03224	-12.9346	   8.832	N.3
   779	2	 2.95349	-12.7353	 9.40861	C.1
   780	2	 2.88467	-12.2735	 8.59278	C.1
   781	2	 1.22813	-12.7247	 9.56016	C.1
   782	2	  1.1593	-12.2629	 8.74433	C.1
   783	2	 2.01834	-14.0365	 8.75096	C.1
   784	2	 1.94952	-13.5746	 7.93513	C.1
   785	1	-12.6171	-0.751948	 3.21325	N.3
   786	2	-12.0286	-0.306697	 4.03561	C.1
   787	2	-11.5222	-0.651829	 3.32283	C.1
   788	2	-13.3221	0.054399	 2.94181	C.1
   789	2	-12.8157	-0.290732	 2.22903	C.1
   790	2	-13.2603	-1.48585	 3.73151	C.1
   791	2	-12.7539	-1.83098	 3.01873	C.1
   792	1	0.671571	 12.4918	 15.4782	N.3
   793	2	 1.74307	   12.66	 15.2672	C.1
   794	2	 1.17647	 12.7035	 14.5184	C.1
   795	2	 0.45326	 13.2244	  16.276	C.1
   796	2	-0.113342	  13.268	 15.5272	C.1
   797	2	0.668284	 11.5258	 16.0146	C.1
   798	2	0.101682	 11.5694	 15.2658	C.1
   799	1	 16.3865	-9.43547	0.202365	N.3
   800	2	 16.7164	-9.64675	 1.23554	C.1
   801	2	 17.4063	-9.58701	0.599885	C.1
   802	2	  15.771	-8.52479	0.314958	C.1
   803	2	 16.4609	-8.46505	-0.320701	C.1
   804	2	 15.6373	-10.2245	0.0100803	C.1
   805	2	 16.3272	-10.1648	-0.625578	C.1
   806	1	-6.29428	0.630066	 1.41875	N.3
   807	2	-5.28175	0.205832	 1.54415	C.1
   808	2	  -5.652	0.109761	0.685495	C.1
   809	2	-6.17616	 1.67243	 1.76572	C.1
   810	2	 -6.5464	 1.57636	0.907062	C.1
   811	2	-6.86955	0.156046	 2.23436	C.1
   812	2	-7.23979	0.059975	 1.37571	C.1
   813	1	 17.4268	 1.67549	 6.51287	N.3
   814	2	 18.4946	 1.88317	 6.31876	C.1
   815	2	 18.0047	 1.57989	 5.57599	C.1
   816	2	 17.0639	 2.61736	 6.96239	C.1
   817	2	 16.5741	 2.31409	 6.21962	C.1
   818	2	 17.4566	0.980858	 7.37162	C.1
   819	2	 16.9668	0.677584	 6.62885	C.1
   820	1	-11.2837	 7.77107	 13.7095	N.3
   821	2	-10.8875	 8.38652	 14.5373	C.1
   822	2	-10.4274	 8.46926	 13.7218	C.1
   823	2	-12.3523	 8.04981	 13.6766	C.1
   824	2	-11.8922	 8.13256	 12.8611	C.1
   825	2	-11.3014	 6.75274	  14.138	C.1
   826	2	-10.8412	 6.83549	 13.3225	C.1
   827	1	-10.9675	-14.7354	-19.6092	N.3
   828	2	-10.0092	-14.8089	 -19.064	C.1
   829	2	-9.94388	 -14.881	-19.9989	C.1
   830	2	-11.3961	-13.7863	-19.2398	C.1
   831	2	-11.3307	-13.8583	-20.1747	C.1
   832	2	-11.5952	-15.5027	-19.1214	C.1
   833	2	-11.5298	-15.5748	-20.0564	C.1
   834	1	 16.4092	 -6.2476	 16.3017	N.3
   835	2	 17.4051	-6.16485	 16.7733	C.1
   836	2	 17.4129	-6.28676	 15.8412	C.1
   837	2	 15.8874	-5.33907	 16.6525	C.1
   838	2	 15.8952	-5.46099	 15.7205	C.1
   839	2	 15.9235	-7.05602	 16.8774	C.1
   840	2	 15.9314	-7.17794	 15.9454	C.1
   841	1	-15.3248	 9.02173	-16.5003	N.3
   842	2	-14.3202	 9.03162	-16.0403	C.1
   843	2	-14.3296	 9.02646	-16.9802	C.1
   844	2	-15.8265	 9.88662	  -16.03	C.1
   845	2	-15.8358	 9.88146	-16.9699	C.1
   846	2	-15.8137	 8.15469	-16.0206	C.1
   847	2	-15.8231	 8.14953	-16.9606	C.1
   848	1	-16.5149	-17.3193	 9.31181	N.3
   849	2	-15.6155	 -17.279	 9.95243	C.1
   850	2	-15.4545	-17.4862	  9.0498	C.1
   851	2	-16.9965	-16.3411	 9.49079	C.1
   852	2	-16.8355	-16.5483	 8.58816	C.1
   853	2	-17.1741	-18.0269	 9.84616	C.1
   854	2	-17.0131	-18.2341	 8.94353	C.1
   855	1	-14.7411	-14.6086	 10.9285	N.3
   856	2	-13.6516	-14.6363	 11.1101	C.1
   857	2	-13.9044	-14.4905	 10.2165	C.1
   858	2	-15.0979	-13.8495	 11.6477	C.1
   859	2	-15.3508	-13.7038	 10.7541	C.1
   860	2	-15.0947	-15.5588	  11.368	C.1
   861	2	-15.3475	 -15.413	 10.4744	C.1
   862	1	-9.09895	-6.91845	 10.1889	N.3
   863	2	 -8.1259	-6.89349	 10.7119	C.1
   864	2	  -8.075	-6.92458	 9.77376	C.1
   865	2	-9.63025	-6.04213	  10.602	C.1
   866	2	-9.57935	-6.07322	 9.66391	C.1
   867	2	-9.61706	-7.77311	 10.6601	C.1
   868	2	-9.56616	 -7.8042	   9.722	C.1
   869	1	 2.26483	 9.65348	-0.932601	N.3
   870	2	  3.3654	 9.56505	-0.975286	C.1
   871	2	 2.94143	 9.68528	-1.80558	C.1
   872	2	 2.10489	 10.4661	-0.201171	C.1
   873	2	 1.68091	 10.5863	-1.03147	C.1
   874	2	 1.96015	 8.74898	 -0.3759	C.1
   875	2	 1.53618	 8.86921	 -1.2062	C.1
   876	1	 8.72949	 14.3977	 7.74949	N.3
   877	2	 9.73067	 14.4647	 8.21214	C.1
   878	2	  9.6429	 14.9006	 7.38394	C.1
   879	2	 8.05777	 14.7637	 8.54678	C.1
   880	2	 7.97001	 15.1996	 7.71858	C.1
   881	2	 8.53167	 13.3108	 7.73186	C.1
   882	2	  8.4439	 13.7466	 6.90366	C.1
   883	1	 7.15342	 -9.8441	-18.5071	N.3
   884	2	 8.24576	-9.93842	-18.6442	C.1
   885	2	 7.77533	-9.61656	-19.3916	C.1
   886	2	 7.06564	-9.22673	 -17.595	C.1
   887	2	 6.59521	-8.90487	-18.3424	C.1
   888	2	 6.85448	-10.8499	 -18.161	C.1
   889	2	 6.38405	-10.5281	-18.9085	C.1
   890	1	 4.56785	 -17.448	-15.9931	N.3
   891	2	 5.37577	-16.8198	-15.5766	C.1
   892	2	 5.56192	-17.2086	-16.4119	C.1
   893	2	 3.69001	-16.7773	 -15.972	C.1
   894	2	 3.87616	-17.1661	-16.8074	C.1
   895	2	 4.35854	-18.1637	-15.1778	C.1
   896	2	 4.54469	-18.5525	-16.0132	C.1
   897	1	-7.13738	 -6.9074	 9.35576	N.3
   898	2	-6.20529	-7.37549	 9.72045	C.1
   899	2	-6.43819	-7.58577	 8.83437	C.1
   900	2	-6.97598	  -5.833	 9.55696	C.1
   901	2	-7.20889	-6.04329	 8.67088	C.1
   902	2	-7.88151	-7.19827	  10.119	C.1
   903	2	-8.11441	-7.40856	 9.23291	C.1
   904	1	 2.36501	 4.17872	-18.5068	N.3
   905	2	 3.33592	 3.86971	-18.0793	C.1
   906	2	 3.07201	 3.40251	-18.8511	C.1
   907	2	 2.48122	 5.27005	-18.6347	C.1
   908	2	  2.2173	 4.80285	-19.4065	C.1
   909	2	 1.67377	 4.09721	-17.6487	C.1
   910	2	 1.40986	 3.63001	-18.4205	C.1
   911	1	-10.5715	 5.71907	-9.28447	N.3
   912	2	-9.67257	 5.40325	-8.72497	C.1
   913	2	-9.58556	  5.3918	-9.66087	C.1
   914	2	 -10.808	 6.70552	-8.84647	C.1
   915	2	 -10.721	 6.69407	-9.78236	C.1
   916	2	-11.3645	 5.06564	-8.87814	C.1
   917	2	-11.2775	 5.05419	-9.81403	C.1
   918	1	-18.6439	-9.97048	-13.9325	N.3
   919	2	-18.1264	-9.27718	-13.2452	C.1
   920	2	-17.9529	-9.13845	-14.1586	C.1
   921	2	 -19.704	-9.87584	-13.6359	C.1
   922	2	-19.5305	-9.73711	-14.5493	C.1
   923	2	-18.3616	-10.9665	-13.5465	C.1
   924	2	 -18.188	-10.8278	-14.4598	C.1
   925	1	 13.0186	-7.74988	-5.58059	N.3
   926	2	 14.0695	 -7.9421	-5.29863	C.1
   927	2	 13.9412	 -7.6349	 -6.1777	C.1
   928	2	 12.6653	 -7.0664	-4.78757	C.1
   929	2	 12.5369	 -6.7592	-5.66663	C.1
   930	2	 12.5135	-8.70193	-5.33697	C.1
   931	2	 12.3852	-8.39473	-6.21603	C.1
   932	1	-10.5316	  11.788	-9.87283	N.3
   933	2	-9.56209	 11.9901	-9.38276	C.1
   934	2	-9.51642	 11.8271	-10.3074	C.1
   935	2	-11.1491	 12.6556	-9.57847	C.1
   936	2	-11.1035	 12.4927	-10.5031	C.1
   937	2	 -10.952	 10.9627	-9.27032	C.1
   938	2	-10.9063	 10.7997	 -10.195	C.1
   939	1	 8.25324	 8.41095	 6.85028	N.3
   940	2	 9.28766	  8.5079	 7.22639	C.1
   941	2	 9.19171	  8.5888	 6.29481	C.1
   942	2	 7.69676	 9.15635	 7.44657	C.1
   943	2	  7.6008	 9.23725	 6.51499	C.1
   944	2	 7.91922	 7.44726	 7.27524	C.1
   945	2	 7.82327	 7.52816	 6.34366	C.1
   946	1	-2.28921	 10.5645	0.881983	N.3
   947	2	-1.20289	 10.7652	 0.85927	C.1
   948	2	-1.53755	 10.2916	0.119469	C.1
   949	2	-2.72809	 11.5668	 1.03609	C.1
   950	2	-3.06275	 11.0932	0.296286	C.1
   951	2	-2.43468	  10.072	 1.86029	C.1
   952	2	-2.76933	 9.59837	 1.12049	C.1
   953	1	 11.5422	-11.1691	 6.07979	N.3
   954	2	 12.4094	-10.9263	 6.72004	C.1
   955	2	 12.4626	 -10.608	 5.83718	C.1
   956	2	 10.6834	-10.7925	 6.66422	C.1
   957	2	 10.7367	-10.4741	 5.78136	C.1
   958	2	 11.4538	 -12.266	 6.17941	C.1
   959	2	 11.5071	-11.9477	 5.29655	C.1
   960	1	-14.5756	-15.5607	-7.63579	N.3
   961	2	-13.5685	-15.5491	-7.18143	C.1
   962	2	-13.5858	-15.4655	-8.11754	C.1
   963	2	-15.1112	-14.7679	-7.08313	C.1
   964	2	-15.1285	-14.6843	-8.01924	C.1
   965	2	-15.0212	-16.4906	-7.23866	C.1
   966	2	-15.0385	-16.4069	-8.17477	C.1
   967	1	 11.3895	-18.8149	 1.07333	N.3
   968	2	 12.0516	-19.2546	 1.84092	C.1
   969	2	 12.4926	-18.8133	 1.13779	C.1
   970	2	 10.7005	-18.1853	 1.66469	C.1
   971	2	 11.1415	 -17.744	0.961559	C.1
   972	2	  10.755	-19.6668	0.769073	C.1
   973	2	  11.196	-19.2255	0.065938	C.1
   974	1	 1.49416	-14.7984	 13.5539	N.3
   975	2	 2.39649	-15.1014	  14.115	C.1
   976	2	 2.54399	-14.8682	 13.2164	C.1
   977	2	 1.06268	-13.9985	 14.1823	C.1
   978	2	 1.21018	-13.7653	 13.2837	C.1
   979	2	0.802059	 -15.645	 13.7122	C.1
   980	2	0.949556	-15.4118	 12.8136	C.1
   981	1	 -16.322	-3.66453	-17.6442	N.3
   982	2	-15.5304	-3.80189	-16.8857	C.1
   983	2	-15.3353	-4.15339	-17.7355	C.1
   984	2	 -16.511	-2.57621	-17.6179	C.1
   985	2	-16.3159	-2.92771	-18.4676	C.1
   986	2	-17.2173	-4.08825	-17.1545	C.1
   987	2	-17.0222	-4.43975	-18.0042	C.1
   988	1	 12.4374	 18.0566	-2.42983	N.3
   989	2	 13.1129	 18.4837	-1.66688	C.1
   990	2	 13.4161	 18.5543	-2.55386	C.1
   991	2	 11.4737	 18.5553	-2.22144	C.1
   992	2	 11.7768	 18.6258	-3.10842	C.1
   993	2	 12.2708	 17.0251	-2.07068	C.1
   994	2	 12.5739	 17.0956	-2.95766	C.1
   995	1	-8.35382	-0.473948	 3.04363	N.3
   996	2	-7.64357	0.229397	 3.51453	C.1
   997	2	-7.25591	-0.405393	 2.93977	C.1
   998	2	-9.09674	0.194745	 2.57269	C.1
   999	2	-8.70907	-0.440046	 1.99792	C.1
  1000	2	-8.90265	 -0.8938	 3.90581	C.1
  1001	2	-8.51499	-1.52859	 3.33105	C.1
  1002	1	 0.14299	-16.0168	 5.51683	N.3
  1003	2	0.902466	-15.5158	 6.14382	C.1
  1004	2	0.903505	-15.2654	  5.2378	C.1
  1005	2	-0.800364	-15.8206	 6.05761	C.1
  1006	2	-0.799325	-15.5701	 5.15159	C.1
  1007	2	0.325309	-17.0897	 5.70809	C.1
  1008	2	0.326348	-16.8392	 4.80207	C.1
  1009	1	 17.1408	-8.06288	 12.2676	N.3
  1010	2	 17.9184	-8.34163	 13.0015	C.1
  1011	2	 18.1839	-7.70993	 12.3581	C.1
  1012	2	  16.291	-7.75678	  12.904	C.1
  1013	2	 16.5565	-7.12508	 12.2606	C.1
  1014	2	 16.8147	-9.03777	 11.8626	C.1
  1015	2	 17.0802	-8.40607	 11.2191	C.1
  1016	1	 8.59952	 1.54693	 19.2802	N.3
  1017	2	 9.37856	0.941726	 19.7779	C.1
  1018	2	 9.32062	0.830954	 18.8462	C.1
  1019	2	 8.82369	 2.57469	 19.6182	C.1
  1020	2	 8.76575	 2.46392	 18.6866	C.1
  1021	2	 7.68321	 1.29051	 19.8418	C.1
  1022	2	 7.62527	 1.17974	 18.9102	C.1
  1023	1	 13.6559	-11.4308	-8.47418	N.3
  1024	2	 14.2436	-11.2008	-7.56716	C.1
  1025	2	 14.7327	-11.5787	-8.27536	C.1
  1026	2	  13.161	-10.4703	-8.70475	C.1
  1027	2	 13.6501	-10.8481	-9.41295	C.1
  1028	2	 12.8296	-12.0546	-8.08832	C.1
  1029	2	 13.3187	-12.4324	-8.79651	C.1
  1030	1	-15.4189	 8.64232	 -13.078	N.3
  1031	2	-14.4729	 9.16629	-13.3046	C.1
  1032	2	-14.9559	 8.87078	-14.0549	C.1
  1033	2	-15.9535	 9.35675	-12.4264	C.1
  1034	2	-16.4366	 9.06124	-13.1767	C.1
  1035	2	-15.1058	 7.84719	-12.3776	C.1
  1036	2	-15.5888	 7.55168	-13.1279	C.1
  1037	1	0.0698399	 -15.419	 5.95621	N.3
  1038	2	 1.15373	-15.6117	 6.05081	C.1
  1039	2	  0.7324	-16.0428	 5.32957	C.1
  1040	2	0.0095279	-14.3157	 5.94448	C.1
  1041	2	-0.411797	-14.7469	 5.22324	C.1
  1042	2	-0.321745	-15.6827	 6.95519	C.1
  1043	2	-0.74307	-16.1139	 6.23395	C.1
  1044	1	-5.26632	 1.05548	 5.46783	N.3
  1045	2	  -4.163	 1.02946	 5.52175	C.1
  1046	2	-4.51714	 1.24331	 4.67768	C.1
  1047	2	-5.54277	 1.74848	 6.28281	C.1
  1048	2	-5.89691	 1.96232	 5.43873	C.1
  1049	2	-5.56199	0.0677261	 5.86505	C.1
  1050	2	-5.91613	0.281569	 5.02098	C.1
  1051	1	 13.5955	 9.83859	 10.4827	N.3
  1052	2	 14.5327	 9.44014	 10.9114	C.1
  1053	2	   14.57	 9.65213	 9.99635	C.1
  1054	2	 13.3511	 10.6836	 11.1513	C.1
  1055	2	 13.3884	 10.8956	 10.2363	C.1
  1056	2	 12.8468	 9.07405	 10.7579	C.1
  1057	2	 12.8841	 9.28604	 9.84284	C.1
  1058	1	 5.81955	-17.9257	0.425253	N.3
  1059	2	 6.83261	-17.9534	0.865532	C.1
  1060	2	  6.8048	-17.9553	-0.0740548	C.1
  1061	2	 5.35859	-17.0448	0.907297	C.1
  1062	2	 5.33078	-17.0468	-0.0322898	C.1
  1063	2	 5.30916	-18.7761	0.912309	C.1
  1064	2	 5.28135	-18.7781	-0.0272775	C.1
  1065	1	 18.6818	-15.8054	-19.9296	N.3
  1066	2	 19.6768	-15.3253	-19.9103	C.1
  1067	2	  19.422	 -15.684	 -20.741	C.1
  1068	2	 18.0144	-15.0195	-19.5324	C.1
  1069	2	 17.7596	-15.3782	 -20.363	C.1
  1070	2	 18.7365	-16.5334	-19.1002	C.1
  1071	2	 18.4816	-16.8921	-19.9309	C.1
  1072	1	-8.83642	-13.4879	 -9.0373	N.3
  1073	2	-7.83484	-13.6228	 -8.5906	C.1
  1074	2	 -7.8865	-13.7897	-9.51422	C.1
  1075	2	-9.11497	-12.4643	-8.72835	C.1
  1076	2	-9.16663	-12.6312	-9.65197	C.1
  1077	2	-9.48195	-14.1263	-8.40751	C.1
  1078	2	-9.53361	-14.2932	-9.33113	C.1
  1079	1	 17.2921	 12.1334	-0.772469	N.3
  1080	2	 18.1934	 12.3389	-0.167304	C.1
  1081	2	 18.2819	 12.5101	-1.08734	C.1
  1082	2	 16.5054	 12.7156	-0.259652	C.1
  1083	2	 16.5939	 12.8868	-1.17969	C.1
  1084	2	 17.0447	 11.0889	-0.510399	C.1
  1085	2	 17.1332	 11.2601	-1.43043	C.1
  1086	1	-4.20567	-8.09379	 -10.245	N.3
  1087	2	-3.28109	-7.81815	 -9.7064	C.1
  1088	2	-3.24835	-7.70786	-10.6393	C.1
  1089	2	-4.98414	-7.50342	-9.72896	C.1
  1090	2	 -4.9514	-7.39312	-10.6619	C.1
  1091	2	-4.40088	-9.12523	-9.90023	C.1
  1092	2	-4.36814	-9.01494	-10.8332	C.1
  1093	1	  17.514	-19.4204	-8.97521	N.3
  1094	2	 18.2283	-19.0277	-8.22927	C.1
  1095	2	 18.5901	 -19.193	-9.08097	C.1
  1096	2	 16.6909	-18.6837	 -8.9491	C.1
  1097	2	 17.0527	 -18.849	-9.80079	C.1
  1098	2	   17.08	-20.3019	-8.46973	C.1
  1099	2	 17.4418	-20.4672	-9.32142	C.1
  1100	1	 14.8402	-10.5306	 15.3887	N.3
  1101	2	 15.8901	-10.7393	 15.6626	C.1
  1102	2	 15.6826	 -10.859	 14.7536	C.1
  1103	2	 14.6759	-9.50956	 15.7779	C.1
  1104	2	 14.4684	-9.62925	 14.8689	C.1
  1105	2	 14.2659	-11.1633	 16.0892	C.1
  1106	2	 14.0584	 -11.283	 15.1803	C.1
  1107	1	 16.3689	-16.8644	 11.5676	N.3
  1108	2	 17.1087	-16.1979	 12.0466	C.1
  1109	2	  17.378	-16.5704	 11.2266	C.1
  1110	2	  15.458	-16.2405	 11.5238	C.1
  1111	2	 15.7273	 -16.613	 10.7038	C.1
  1112	2	 16.1361	-17.5959	 12.3622	C.1
  1113	2	 16.4054	-17.9684	 11.5422	C.1
  1114	1	-7.70482	-15.9188	 8.48125	N.3
  1115	2	-6.77276	-15.9325	 9.07452	C.1
  1116	2	-6.65474	 -15.982	 8.14328	C.1
  1117	2	-8.22056	-15.0107	 8.84198	C.1
  1118	2	-8.10254	-15.0602	 7.91073	C.1
  1119	2	-8.29818	 -16.739	 8.92411	C.1
  1120	2	-8.18016	-16.7885	 7.99287	C.1
  1121	1	-16.4075	 8.48086	-10.5459	N.3
  1122	2	-15.7417	 8.35016	-9.67379	C.1
  1123	2	-15.4324	  7.9662	-10.4741	C.1
  1124	2	-16.5676	  9.5736	-10.5799	C.1
  1125	2	-16.2583	 9.18965	-11.3802	C.1
  1126	2	-17.3773	 8.09476	-10.1834	C.1
  1127	2	 -17.068	 7.71081	-10.9837	C.1
  1128	1	 17.2833	 16.6513	 4.63231	N.3
  1129	2	 17.8653	 16.8615	 5.54774	C.1
  1130	2	 18.3564	 16.8889	 4.74666	C.1
  1131	2	 16.4458	 17.3692	   4.695	C.1
  1132	2	 16.9369	 17.3966	 3.89392	C.1
  1133	2	 16.8023	  15.682	 4.85582	C.1
  1134	2	 17.2934	 15.7094	 4.05474	C.1
  1135	1	-9.44977	 12.8062	 2.51388	N.3
  1136	2	-8.34819	 12.7208	 2.50174	C.1
  1137	2	-8.72236	 13.1723	 1.76707	C.1
  1138	2	 -9.6571	   13.26	 3.49974	C.1
  1139	2	-10.0313	 13.7115	 2.76507	C.1
  1140	2	-9.78276	 11.7605	 2.64216	C.1
  1141	2	-10.1569	  12.212	  1.9075	C.1
  1142	1	-8.19696	-9.82916	 12.1753	N.3
  1143	2	-7.36579	-9.94869	 12.8935	C.1
  1144	2	-7.27177	-10.4272	 12.0899	C.1
  1145	2	  -8.278	-8.73295	 12.0629	C.1
  1146	2	-8.18397	-9.21143	 11.2593	C.1
  1147	2	-9.08814	-10.0881	  12.775	C.1
  1148	2	-8.99411	-10.5666	 11.9714	C.1
  1149	1	 9.73285	 15.3132	-19.2107	N.3
  1150	2	 10.6082	 14.7884	-18.7874	C.1
  1151	2	 10.4355	 14.6108	-19.6942	C.1
  1152	2	 9.93237	 16.3728	-18.9689	C.1
  1153	2	 9.75974	 16.1952	-19.8757	C.1
  1154	2	 8.91694	 15.0449	-18.5156	C.1
  1155	2	 8.74431	 14.8673	-19.4224	C.1
  1156	1	 13.2834	 13.9785	-2.65281	N.3
  1157	2	 14.2603	 13.8478	-2.15326	C.1
  1158	2	 14.2861	 13.8304	-3.09274	C.1
  1159	2	 12.8967	 14.9143	-2.21053	C.1
  1160	2	 12.9225	 14.8969	-3.15002	C.1
  1161	2	 12.6544	 13.1995	-2.18542	C.1
  1162	2	 12.6803	 13.1821	-3.12491	C.1
  1163	1	-0.818052	-18.4393	0.373416	N.3
  1164	2	-0.028209	-18.9883	0.917106	C.1
  1165	2	-0.116848	-19.2112	0.00822069	C.1
  1166	2	-0.575129	-17.3806	0.576227	C.1
  1167	2	-0.663769	-17.6035	-0.332659	C.1
  1168	2	-1.71786	-18.6146	0.990243	C.1
  1169	2	 -1.8065	-18.8374	0.0813571	C.1
  1170	1	-6.72624	 16.1885	-19.5429	N.3
  1171	2	-5.86264	 15.5071	-19.4393	C.1
  1172	2	 -6.1942	 15.6024	-20.3137	C.1
  1173	2	 -6.3695	 17.1219	-19.0712	C.1
  1174	2	-6.70106	 17.2171	-19.9456	C.1
  1175	2	-7.44924	 15.7937	-18.8065	C.1
  1176	2	 -7.7808	  15.889	-19.6809	C.1
  1177	1	 15.4368	-11.9548	 3.92694	N.3
  1178	2	 16.4659	-12.1975	 3.60591	C.1
  1179	2	 16.0086	 -11.588	 3.05548	C.1
  1180	2	 15.5686	-11.6335	 4.97587	C.1
  1181	2	 15.1113	 -11.024	 4.42544	C.1
  1182	2	 14.9619	-12.9477	 4.02469	C.1
  1183	2	 14.5046	-12.3382	 3.47425	C.1
  1184	1	-16.7663	 3.28867	-18.4691	N.3
  1185	2	-15.8581	 2.66275	-18.4035	C.1
  1186	2	-16.2209	 2.75176	-19.2661	C.1
  1187	2	-16.4563	 4.23467	-17.9897	C.1
  1188	2	-16.8191	 4.32368	-18.8523	C.1
  1189	2	-17.4404	 2.83508	-17.7203	C.1
  1190	2	-17.8031	 2.92409	-18.5829	C.1
  1191	1	 12.0278	 6.51776	 12.3747	N.3
  1192	2	 12.9712	 6.11848	 12.7887	C.1
  1193	2	 12.8839	 6.05074	 11.8552	C.1
  1194	2	 11.9908	 7.54625	 12.7768	C.1
  1195	2	 11.9034	 7.47851	 11.8433	C.1
  1196	2	 11.2523	 5.99016	 12.9588	C.1
  1197	2	  11.165	 5.92242	 12.0254	C.1
  1198	1	  16.452	-1.13014	 14.4518	N.3
  1199	2	 17.4999	-1.36397	 14.1908	C.1
  1200	2	 17.0225	-0.885312	 13.5377	C.1
  1201	2	 16.5419	-0.626914	 15.4313	C.1
  1202	2	 16.0645	-0.148253	 14.7782	C.1
  1203	2	 16.0304	-2.11751	 14.7128	C.1
  1204	2	 15.5529	-1.63885	 14.0597	C.1
  1205	1	 13.7218	 8.60882	-8.52437	N.3
  1206	2	 14.2849	 9.27661	-7.84773	C.1
  1207	2	 14.8131	 8.72673	-8.39753	C.1
  1208	2	 13.0486	 9.30181	-9.06055	C.1
  1209	2	 13.5768	 8.75194	-9.61035	C.1
  1210	2	 13.0396	 8.07285	-7.84014	C.1
  1211	2	 13.5677	 7.52298	-8.38994	C.1
  1212	1	-10.8498	 6.75313	-14.3761	N.3
  1213	2	-9.90592	 7.31389	-14.5009	C.1
  1214	2	-10.4101	 7.19987	 -15.286	C.1
  1215	2	-11.3623	 7.29895	-13.5635	C.1
  1216	2	-11.8665	 7.18494	-14.3486	C.1
  1217	2	-10.5248	 5.81759	-13.8861	C.1
  1218	2	 -11.029	 5.70357	-14.6712	C.1
  1219	1	-11.1942	 17.2727	 13.7743	N.3
  1220	2	-10.2116	 17.3724	 14.2699	C.1
  1221	2	-10.1816	  17.303	  13.333	C.1
  1222	2	-11.7623	 18.1367	 14.1637	C.1
  1223	2	-11.7323	 18.0674	 13.2268	C.1
  1224	2	-11.6536	 16.4131	 14.2948	C.1
  1225	2	-11.6236	 16.3438	 13.3578	C.1
  1226	1	 4.41714	 5.28672	 1.43814	N.3
  1227	2	   5.455	 5.11587	 1.77661	C.1
  1228	2	 5.37134	 5.54204	0.942955	C.1
  1229	2	 3.95928	 5.82354	 2.28846	C.1
  1230	2	 3.87563	 6.24971	 1.45481	C.1
  1231	2	 3.96262	 4.28151	 1.49983	C.1
  1232	2	 3.87897	 4.70768	0.666176	C.1
  1233	1	-19.7937	 -17.054	 5.58517	N.3
  1234	2	-18.8811	-17.3521	 6.13204	C.1
  1235	2	-18.7963	-17.3275	 5.19619	C.1
  1236	2	 -20.069	-16.0939	 6.05753	C.1
  1237	2	-19.9843	-16.0693	 5.12168	C.1
  1238	2	-20.5582	 -17.753	 5.96971	C.1
  1239	2	-20.4735	-17.7285	 5.03386	C.1
  1240	1	-13.1363	  7.8851	 7.60106	N.3
  1241	2	 -12.392	 8.06268	 8.39822	C.1
  1242	2	-12.0448	 8.03901	 7.52504	C.1
  1243	2	-13.8943	  8.6678	 7.78431	C.1
  1244	2	-13.5471	 8.64414	 6.91114	C.1
  1245	2	-13.6434	 6.96032	  7.9304	C.1
  1246	2	-13.2961	 6.93665	 7.05722	C.1
  1247	1	-17.7958	 12.4766	-8.58938	N.3
  1248	2	-16.8019	 12.4235	-8.10953	C.1
  1249	2	-16.7907	 12.5843	-9.03562	C.1
  1250	2	-18.3269	 13.2354	-7.98699	C.1
  1251	2	-18.3157	 13.3962	-8.91308	C.1
  1252	2	-18.2753	 11.5296	-8.28247	C.1
  1253	2	-18.2641	 11.6903	-9.20856	C.1
  1254	1	-7.08735	 -4.8205	-8.16725	N.3
  1255	2	-6.37615	-4.31692	-7.48792	C.1
  1256	2	-6.19038	-4.22038	-8.40431	C.1
  1257	2	-8.06785	  -4.428	-7.84255	C.1
  1258	2	-7.88208	-4.33146	-8.75894	C.1
  1259	2	-7.09672	-5.86139	 -7.7967	C.1
  1260	2	-6.91095	-5.76485	-8.71309	C.1
  1261	1	-6.10414	 12.6251	-12.2026	N.3
  1262	2	-5.12125	 12.1573	 -12.013	C.1
  1263	2	-5.29176	 12.3797	-12.9102	C.1
  1264	2	-6.11985	 13.4748	-11.4965	C.1
  1265	2	-6.29036	 13.6973	-12.3938	C.1
  1266	2	-6.81555	 11.9095	-11.7524	C.1
  1267	2	-6.98607	  12.132	-12.6497	C.1
  1268	1	-16.2861	-4.36972	-3.92873	N.3
  1269	2	-15.2439	-4.10317	-3.67639	C.1
  1270	2	-15.3409	-4.69954	-4.39647	C.1
  1271	2	-16.7726	-3.38688	-4.06361	C.1
  1272	2	-16.8696	-3.98325	 -4.7837	C.1
  1273	2	-16.6962	-4.72454	-2.96605	C.1
  1274	2	-16.7933	-5.32092	-3.68613	C.1
  1275	1	-19.7884	-16.6624	 9.70363	N.3
  1276	2	-18.8502	-16.7997	  10.271	C.1
  1277	2	-18.7725	-16.8996	 9.33956	C.1
  1278	2	-20.1457	-15.6731	  10.042	C.1
  1279	2	 -20.068	-15.7731	 9.11057	C.1
  1280	2	-20.4858	-17.3645	  10.195	C.1
  1281	2	-20.4081	-17.4644	 9.26361	C.1
  1282	1	  15.373	-9.28016	-17.7526	N.3
  1283	2	 16.2521	-8.91392	-17.1923	C.1
  1284	2	 16.3163	-8.84355	-18.1275	C.1
  1285	2	 14.5335	-8.72555	-17.2961	C.1
  1286	2	 14.5977	-8.65518	-18.2313	C.1
  1287	2	 15.2372	-10.3066	-17.3668	C.1
  1288	2	 15.3014	-10.2362	-18.3019	C.1
  1289	1	-12.0633	-1.27851	0.806988	N.3
  1290	2	-11.0691	-0.989655	 1.19296	C.1
  1291	2	-11.1981	-0.845835	0.273031	C.1
  1292	2	-12.7596	-0.734073	 1.47002	C.1
  1293	2	-12.8886	-0.590252	0.550088	C.1
  1294	2	-12.1677	-2.32755	 1.13788	C.1
  1295	2	-12.2967	-2.18373	 0.21795	C.1
  1296	1	 11.6717	 4.21855	 6.18393	N.3
  1297	2	 12.1386	  3.8285	  7.1063	C.1
  1298	2	 12.7217	 4.27906	 6.52269	C.1
  1299	2	 10.8278	 4.82217	 6.56379	C.1
  1300	2	 11.4108	 5.27273	 5.98017	C.1
  1301	2	 11.1741	 3.32913	 5.75712	C.1
  1302	2	 11.7571	 3.77969	 5.17351	C.1
  1303	1	-6.60813	-4.89122	 11.5285	N.3
  1304	2	-5.58615	-5.24391	 11.7566	C.1
  1305	2	-5.76566	-5.10116	 10.8451	C.1
  1306	2	 -6.7183	-4.00139	 12.1742	C.1
  1307	2	-6.89781	-3.85863	 11.2626	C.1
  1308	2	-7.25068	 -5.6425	  12.022	C.1
  1309	2	-7.43019	-5.49974	 11.1104	C.1
  1310	1	 -19.831	-11.3721	 16.1926	N.3
  1311	2	-19.1189	-11.7802	 16.9323	C.1
  1312	2	-19.0805	-12.1752	 16.0802	C.1
  1313	2	-19.6263	-10.2866	 16.2171	C.1
  1314	2	-19.5879	-10.6815	  15.365	C.1
  1315	2	-20.8055	 -11.457	 16.7065	C.1
  1316	2	-20.7671	 -11.852	 15.8543	C.1
  1317	1	  17.686	-7.83561	-14.7083	N.3
  1318	2	 18.7288	-7.99783	 -14.381	C.1
  1319	2	 18.6193	-7.83262	-15.2998	C.1
  1320	2	 17.3342	-7.02867	-14.0405	C.1
  1321	2	 17.2247	-6.86346	-14.9594	C.1
  1322	2	 17.1592	-8.72813	-14.3252	C.1
  1323	2	 17.0497	-8.56292	-15.2441	C.1
  1324	1	 -9.7735	-16.7133	-11.4675	N.3
  1325	2	-8.77315	-16.9676	-11.0731	C.1
  1326	2	-8.90604	-17.1637	-11.9828	C.1
  1327	2	-9.88962	 -15.649	-11.1942	C.1
  1328	2	-10.0225	-15.8451	-12.1039	C.1
  1329	2	-10.4584	-17.2291	-10.7706	C.1
  1330	2	-10.5913	-17.4252	-11.6802	C.1
  1331	1	 9.24111	 18.8539	-3.92808	N.3
  1332	2	   10.19	 19.3665	-3.68764	C.1
  1333	2	 10.2412	 18.7358	-4.38269	C.1
  1334	2	 8.53971	 19.6897	-4.10263	C.1
  1335	2	 8.59099	 19.0589	-4.79768	C.1
  1336	2	 8.91673	 18.4518	-2.95141	C.1
  1337	2	   8.968	  17.821	-3.64646	C.1
  1338	1	-10.9024	  17.538	-9.96618	N.3
  1339	2	-10.0637	 17.4951	-9.24813	C.1
  1340	2	-9.81342	  17.558	 -10.152	C.1
  1341	2	-11.5154	 18.3762	-9.58876	C.1
  1342	2	-11.2651	 18.4392	-10.4926	C.1
  1343	2	-11.5036	 16.6482	-9.70583	C.1
  1344	2	-11.2533	 16.7112	-10.6097	C.1
  1345	1	 5.36255	-16.1757	 14.5906	N.3
  1346	2	 5.95884	-16.1363	   15.52	C.1
  1347	2	 6.34432	-15.7051	  14.779	C.1
  1348	2	 4.37914	-15.7818	 14.9045	C.1
  1349	2	 4.76461	-15.3505	 14.1636	C.1
  1350	2	 5.17146	 -17.256	 14.4587	C.1
  1351	2	 5.55693	-16.8247	 13.7177	C.1
  1352	1	-3.99152	 3.52258	-2.51507	N.3
  1353	2	-3.00706	 3.52545	-2.01335	C.1
  1354	2	-2.98427	 3.68442	-2.93952	C.1
  1355	2	-4.57677	 4.25245	-1.92718	C.1
  1356	2	-4.55398	 4.41143	-2.85336	C.1
  1357	2	-4.42491	 2.55137	-2.21542	C.1
  1358	2	-4.40212	 2.71034	 -3.1416	C.1
  1359	1	 2.10392	 8.29234	-5.10526	N.3
  1360	2	 2.66742	 7.88076	-4.24853	C.1
  1361	2	 2.86668	 7.49325	-5.08144	C.1
  1362	2	  2.2944	 9.37842	-5.03455	C.1
  1363	2	 2.49366	 8.99092	-5.86746	C.1
  1364	2	 1.05106	 8.19909	-4.78332	C.1
  1365	2	 1.25032	 7.81159	-5.61623	C.1
  1366	1	-8.76314	-3.09808	 3.77102	N.3
  1367	2	-7.79087	-2.92503	 4.26665	C.1
  1368	2	-7.74588	-3.07735	 3.34016	C.1
  1369	2	-9.36119	-2.21995	 4.07446	C.1
  1370	2	-9.31619	-2.37227	 3.14798	C.1
  1371	2	-9.20486	 -3.9208	 4.36169	C.1
  1372	2	-9.15986	-4.07312	  3.4352	C.1
  1373	1	 10.3015	-4.02671	-8.04691	N.3
  1374	2	 11.3445	-4.35517	-7.88837	C.1
  1375	2	 11.1367	-4.09404	-8.76714	C.1
  1376	2	 10.1636	-3.24425	-7.27905	C.1
  1377	2	 9.95579	-2.98312	-8.15783	C.1
  1378	2	 9.70801	-4.87239	-7.65515	C.1
  1379	2	 9.50024	-4.61127	-8.53393	C.1
  1380	1	-14.4088	-16.5038	-19.8237	N.3
  1381	2	-13.3593	-16.5677	-19.4841	C.1
  1382	2	-13.4776	-16.5518	-20.4165	C.1
  1383	2	-14.7949	-15.6192	-19.2858	C.1
  1384	2	-14.9132	-15.6033	-20.2182	C.1
  1385	2	-14.8947	-17.3483	-19.3026	C.1
  1386	2	-15.0131	-17.3324	 -20.235	C.1
  1387	1	 1.95528	 5.12104	-12.1762	N.3
  1388	2	 2.74651	 5.06933	-11.4067	C.1
  1389	2	 2.79706	  4.4122	 -12.077	C.1
  1390	2	 2.01956	 6.16415	-12.5349	C.1
  1391	2	  2.0701	 5.50703	-13.2052	C.1
  1392	2	 1.02396	 5.11533	-11.5817	C.1
  1393	2	  1.0745	 4.45821	 -12.252	C.1
  1394	1	-0.612804	-5.57614	 11.1397	N.3
  1395	2	0.0288734	-5.84844	  11.997	C.1
  1396	2	0.398044	-5.21788	 11.4056	C.1
  1397	2	-1.56021	-5.27174	 11.6199	C.1
  1398	2	-1.19104	-4.64118	 11.0286	C.1
  1399	2	-0.860835	-6.55408	 10.6892	C.1
  1400	2	-0.491664	-5.92352	 10.0978	C.1
  1401	1	 16.9873	-4.88488	-13.2921	N.3
  1402	2	 17.6938	-4.62022	-12.4849	C.1
  1403	2	 18.0755	-4.69928	-13.3403	C.1
  1404	2	  16.198	-4.11729	-13.1988	C.1
  1405	2	 16.5797	-4.19636	-14.0542	C.1
  1406	2	 16.4976	-5.79853	-12.9097	C.1
  1407	2	 16.8792	-5.87759	-13.7651	C.1
  1408	1	 8.94534	-12.0497	-13.8075	N.3
  1409	2	 9.75394	-12.7158	-13.4564	C.1
  1410	2	 9.93505	-12.2535	-14.2545	C.1
  1411	2	  8.7455	-11.4102	-12.9288	C.1
  1412	2	 8.92662	-10.9478	-13.7269	C.1
  1413	2	 8.06492	-12.7165	  -13.84	C.1
  1414	2	 8.24603	-12.2541	-14.6381	C.1
  1415	1	-12.1343	 17.9635	 13.1866	N.3
  1416	2	-11.2598	 18.5987	 13.4159	C.1
  1417	2	-11.5167	 18.5833	 12.5118	C.1
  1418	2	-12.9047	 18.3316	 13.8879	C.1
  1419	2	-13.1617	 18.3161	 12.9839	C.1
  1420	2	-11.8531	 16.9833	 13.6121	C.1
  1421	2	  -12.11	 16.9679	  12.708	C.1
  1422	1	-11.0855	 7.69409	  1.9039	N.3
  1423	2	 -10.088	 7.67797	 2.37908	C.1
  1424	2	-10.0853	  7.6121	  1.4414	C.1
  1425	2	-11.5434	 8.61438	 2.30909	C.1
  1426	2	-11.5407	 8.54851	 1.37141	C.1
  1427	2	 -11.629	 6.88873	 2.43007	C.1
  1428	2	-11.6262	 6.82286	 1.49238	C.1
  1429	1	 5.33105	 1.02167	 5.11952	N.3
  1430	2	 6.13368	0.900564	  5.8692	C.1
  1431	2	 6.41754	 0.88375	 4.97324	C.1
  1432	2	 4.82841	  1.9534	 5.43589	C.1
  1433	2	 5.11227	 1.93659	 4.53993	C.1
  1434	2	 4.60525	0.236271	 5.39741	C.1
  1435	2	 4.88912	0.219456	 4.50145	C.1
  1436	1	-3.23773	 12.5021	 12.6547	N.3
  1437	2	 -2.4008	 12.6396	 13.3629	C.1
  1438	2	-2.44125	 13.2679	 12.6649	C.1
  1439	2	-4.12419	 12.4739	 13.3137	C.1
  1440	2	-4.16465	 13.1023	 12.6157	C.1
  1441	2	-3.12752	 11.4504	 12.3345	C.1
  1442	2	-3.16797	 12.0787	 11.6365	C.1
  1443	1	  19.337	 4.95336	-9.39139	N.3
  1444	2	 20.2103	 5.14902	 -8.7433	C.1
  1445	2	 20.2891	 5.46271	 -9.6259	C.1
  1446	2	 18.4949	 5.37739	-8.81532	C.1
  1447	2	 18.5737	 5.69109	-9.69792	C.1
  1448	2	 19.1877	 3.86313	-9.29166	C.1
  1449	2	 19.2665	 4.17683	-10.1743	C.1
  1450	1	-6.58462	-6.53216	-2.05902	N.3
  1451	2	-5.58096	-6.59136	-1.60068	C.1
  1452	2	 -5.5932	-6.61136	-2.54039	C.1
  1453	2	-7.01757	-5.62383	-1.60257	C.1
  1454	2	-7.02981	-5.64384	-2.54227	C.1
  1455	2	-7.13697	-7.35129	-1.56424	C.1
  1456	2	-7.14921	-7.37129	-2.50395	C.1
  1457	1	 7.23798	 19.8181	 19.6375	N.3
  1458	2	 8.23537	 19.8144	  20.113	C.1
  1459	2	 8.24052	 19.8077	  19.173	C.1
  1460	2	 6.74159	  20.691	 20.0986	C.1
  1461	2	 6.74674	 20.6843	 19.1586	C.1
  1462	2	 6.72926	  18.959	 20.1108	C.1
  1463	2	 6.73441	 18.9524	 19.1708	C.1
  1464	1	-19.4744	-7.59912	-18.1982	N.3
  1465	2	-18.4318	-7.38141	-17.9041	C.1
  1466	2	-18.5481	-7.64587	-18.7987	C.1
  1467	2	-20.0163	-6.68191	 -17.905	C.1
  1468	2	-20.1326	-6.94636	-18.7995	C.1
  1469	2	-19.8008	-8.33734	-17.4436	C.1
  1470	2	 -19.917	 -8.6018	-18.3381	C.1
  1471	1	-7.60169	 5.48483	-15.6995	N.3
  1472	2	-6.98454	 5.61451	-14.7922	C.1
  1473	2	-6.60725	 5.06828	-15.4577	C.1
  1474	2	-7.81616	 6.52341	-16.0097	C.1
  1475	2	-7.43887	 5.97718	-16.6752	C.1
  1476	2	-8.57031	 5.13592	-15.2984	C.1
  1477	2	-8.19302	 4.58969	-15.9639	C.1
  1478	1	 17.8773	-8.04213	-15.3011	N.3
  1479	2	 18.5691	-7.20798	-15.0855	C.1
  1480	2	 18.4797	-7.42845	-15.9949	C.1
  1481	2	 16.9433	-7.73199	-14.7987	C.1
  1482	2	 16.8539	-7.95247	-15.7081	C.1
  1483	2	 18.2535	-8.85571	 -14.655	C.1
  1484	2	 18.1641	-9.07618	-15.5644	C.1
  1485	1	 11.8472	 1.24322	 16.1792	N.3
  1486	2	 12.8395	0.812569	 16.4043	C.1
  1487	2	 12.6275	 0.87211	 15.4905	C.1
  1488	2	 11.8603	 2.20536	 16.7223	C.1
  1489	2	 11.6482	  2.2649	 15.8084	C.1
  1490	2	 11.1598	0.622413	 16.7816	C.1
  1491	2	 10.9478	0.681955	 15.8678	C.1
  1492	1	-1.76358	-9.21804	 8.68155	N.3
  1493	2	-0.846698	-9.82575	 8.57705	C.1
  1494	2	-1.17564	 -9.4575	 7.77718	C.1
  1495	2	-1.49205	-8.48306	  9.4606	C.1
  1496	2	-1.82099	-8.11481	 8.66073	C.1
  1497	2	-2.45859	 -9.8977	 9.20679	C.1
  1498	2	-2.78753	-9.52945	 8.40692	C.1
  1499	1	-18.8306	-10.3584	 5.86881	N.3
  1500	2	-17.7721	-10.0423	 5.88847	C.1
  1501	2	-18.1114	-10.2505	 5.03696	C.1
  1502	2	-19.3496	-9.53602	 6.39336	C.1
  1503	2	 -19.689	-9.74426	 5.54185	C.1
  1504	2	-18.8612	-11.1846	 6.60186	C.1
  1505	2	-19.2005	-11.3928	 5.75035	C.1
  1506	1	-19.5848	 2.03868	 15.5893	N.3
  1507	2	-18.6573	 1.97281	 16.1862	C.1
  1508	2	-18.5324	 2.00019	  15.255	C.1
  1509	2	-20.1008	 2.91553	 16.0203	C.1
  1510	2	-19.9759	 2.94291	  15.089	C.1
  1511	2	-20.1837	 1.18663	 15.9583	C.1
  1512	2	-20.0588	 1.21401	 15.0271	C.1
  1513	1	-15.4961	 18.6271	 13.1396	N.3
  1514	2	 -14.929	 17.9775	 13.8305	C.1
  1515	2	-14.7192	 17.8726	 12.9202	C.1
  1516	2	-15.3254	 19.6397	 13.5476	C.1
  1517	2	-15.1157	 19.5348	 12.6374	C.1
  1518	2	-16.5485	 18.4215	 13.4062	C.1
  1519	2	-16.3388	 18.3166	 12.4959	C.1
  1520	1	-10.0438	-2.63928	 12.5741	N.3
  1521	2	-9.32847	-2.59607	 13.4152	C.1
  1522	2	-9.11083	-3.20868	 12.7363	C.1
  1523	2	 -10.117	-1.58538	 12.2504	C.1
  1524	2	 -9.8994	  -2.198	 11.5715	C.1
  1525	2	-11.0123	-2.81748	 13.0752	C.1
  1526	2	-10.7947	-3.43009	 12.3963	C.1
  1527	1	-8.95776	  11.603	-13.6705	N.3
  1528	2	-8.33711	 11.6193	-12.7565	C.1
  1529	2	-7.86355	  11.497	-13.5593	C.1
  1530	2	-9.53238	 12.5443	-13.6025	C.1
  1531	2	-9.05882	 12.4221	-14.4052	C.1
  1532	2	-9.71414	 10.8288	-13.4485	C.1
  1533	2	-9.24058	 10.7065	-14.2512	C.1
  1534	1	-5.32212	 3.48185	-9.66313	N.3
  1535	2	  -5.069	 3.12438	-8.64871	C.1
  1536	2	-4.34351	 3.18724	 -9.2431	C.1
  1537	2	 -5.8558	 4.43006	-9.47096	C.1
  1538	2	 -5.1303	 4.49293	-10.0654	C.1
  1539	2	 -6.1298	 2.79681	-9.97813	C.1
  1540	2	 -5.4043	 2.85967	-10.5725	C.1
  1541	1	-7.86531	 11.7202	-6.67857	N.3
  1542	2	-6.90206	 11.7566	-6.13845	C.1
  1543	2	-6.85375	 11.4367	-7.02105	C.1
  1544	2	-8.25359	 12.7492	-6.57212	C.1
  1545	2	-8.20528	 12.4293	-7.45471	C.1
  1546	2	-8.51275	 11.1346	-6.00125	C.1
  1547	2	-8.46444	 10.8148	-6.88384	C.1
  1548	1	 16.0118	-5.68235	-9.19099	N.3
  1549	2	 16.7437	-5.18892	-8.52634	C.1
  1550	2	 16.9299	-5.12268	-9.44532	C.1
  1551	2	 15.0478	-5.24505	-8.87408	C.1
  1552	2	 15.2341	 -5.1788	-9.79306	C.1
  1553	2	 15.9645	-6.71244	-8.79409	C.1
  1554	2	 16.1507	-6.64619	-9.71307	C.1
  1555	1	-5.06898	 9.00395	 15.8679	N.3
  1556	2	-4.24842	 8.90685	 16.6015	C.1
  1557	2	-4.00288	 9.27869	 15.7739	C.1
  1558	2	-5.84068	 9.56526	  16.425	C.1
  1559	2	-5.59514	  9.9371	 15.5973	C.1
  1560	2	-5.48616	 7.98199	 15.8188	C.1
  1561	2	-5.24062	 8.35383	 14.9912	C.1
  1562	1	 12.3989	 15.0162	-7.54233	N.3
  1563	2	 12.8817	 15.3362	-6.60136	C.1
  1564	2	 13.3788	 15.5009	-7.38196	C.1
  1565	2	 11.4117	 15.5108	-7.50069	C.1
  1566	2	 11.9089	 15.6755	-8.28128	C.1
  1567	2	 12.1575	 13.9545	-7.35404	C.1
  1568	2	 12.6547	 14.1192	-8.13463	C.1
  1569	1	-15.5426	-9.74624	 11.7767	N.3
  1570	2	-14.6051	-9.19375	 11.5848	C.1
  1571	2	-15.1979	-9.24059	 10.8567	C.1
  1572	2	-15.9456	-9.25376	   12.68	C.1
  1573	2	-16.5384	 -9.3006	 11.9519	C.1
  1574	2	-15.1879	 -10.721	 12.1575	C.1
  1575	2	-15.7806	-10.7678	 11.4294	C.1
  1576	1	 15.4032	 9.74067	 11.1821	N.3
  1577	2	 16.4045	 9.71291	 11.6485	C.1
  1578	2	 16.4018	 9.74362	  10.709	C.1
  1579	2	 14.9154	  10.597	 11.6818	C.1
  1580	2	 14.9127	 10.6277	 10.7423	C.1
  1581	2	 14.8938	 8.86605	 11.6252	C.1
  1582	2	  14.891	 8.89676	 10.6857	C.1
  1583	1	  -13.55	 10.7312	-15.7134	N.3
  1584	2	-12.8106	 11.3928	 -15.227	C.1
  1585	2	  -12.46	 10.8104	-15.8763	C.1
  1586	2	-14.3174	 11.4365	-16.0801	C.1
  1587	2	-13.9668	 10.8541	-16.7293	C.1
  1588	2	-14.0479	 10.2379	-14.8592	C.1
  1589	2	-13.6973	 9.65548	-15.5084	C.1
  1590	1	-10.5106	-14.5003	   8.566	N.3
  1591	2	-9.47154	 -14.125	 8.54794	C.1
  1592	2	-9.90331	 -14.147	 7.71325	C.1
  1593	2	-10.9953	-13.8653	 9.32934	C.1
  1594	2	-11.4271	-13.8873	 8.49465	C.1
  1595	2	-10.4174	-15.4778	 9.07274	C.1
  1596	2	-10.8491	-15.4997	 8.23806	C.1
  1597	1	 19.3849	 6.70397	 16.7319	N.3
  1598	2	 20.2331	  7.2042	  17.233	C.1
  1599	2	 20.2799	 7.18194	 16.2944	C.1
  1600	2	 18.5034	 7.22562	 17.1463	C.1
  1601	2	 18.5502	 7.20336	 16.2077	C.1
  1602	2	 19.3479	 5.71548	 17.2242	C.1
  1603	2	 19.3947	 5.69322	 16.2856	C.1
  1604	1	 8.00337	 12.8377	0.636958	N.3
  1605	2	 8.45851	 12.1546	 1.37666	C.1
  1606	2	  8.8684	 12.1584	 0.53075	C.1
  1607	2	  7.9981	 13.8103	  1.1611	C.1
  1608	2	 8.40799	 13.8142	0.315185	C.1
  1609	2	 6.93867	 12.5423	0.641983	C.1
  1610	2	 7.34857	 12.5461	-0.203932	C.1
  1611	1	 12.5433	-7.97897	 16.0457	N.3
  1612	2	 13.4578	-8.24565	 16.6056	C.1
  1613	2	 13.5997	-7.95688	 15.7224	C.1
  1614	2	 12.0477	-7.24491	 16.7062	C.1
  1615	2	 12.1896	-6.95614	  15.823	C.1
  1616	2	 11.9116	-8.87949	   16.15	C.1
  1617	2	 12.0535	-8.59072	 15.2667	C.1
  1618	1	-4.56056	 11.7491	 19.0281	N.3
  1619	2	-3.77907	 11.1536	 19.5336	C.1
  1620	2	-3.86477	 10.9993	 18.6104	C.1
  1621	2	-4.30861	 12.7874	 19.3098	C.1
  1622	2	-4.39431	 12.6331	 18.3865	C.1
  1623	2	-5.46544	 11.5378	  19.626	C.1
  1624	2	-5.55113	 11.3835	 18.7027	C.1
  1625	1	 1.76558	   18.82	 -19.253	N.3
  1626	2	 2.06876	 18.8617	-18.1913	C.1
  1627	2	 2.76826	 18.7128	-18.8013	C.1
  1628	2	 1.21159	 19.7654	-19.3948	C.1
  1629	2	  1.9111	 19.6165	-20.0048	C.1
  1630	2	0.967138	 18.0563	-19.2579	C.1
  1631	2	 1.66664	 17.9073	-19.8679	C.1
  1632	1	-5.26782	-4.01553	 -18.972	N.3
  1633	2	-4.60303	-3.86918	-18.1016	C.1
  1634	2	-4.17964	-4.18364	-18.8797	C.1
  1635	2	-5.77051	 -3.0368	-19.0733	C.1
  1636	2	-5.34713	-3.35126	-19.8514	C.1
  1637	2	-6.06499	-4.66891	-18.5739	C.1
  1638	2	-5.64161	-4.98336	 -19.352	C.1
  1639	1	 19.9231	 4.05868	-3.78384	N.3
  1640	2	 20.6685	 3.25085	-3.67143	C.1
  1641	2	 20.7973	 3.81333	-4.41348	C.1
  1642	2	 19.9478	 4.56368	-2.80138	C.1
  1643	2	 20.0766	 5.12616	-3.54343	C.1
  1644	2	 18.9598	  3.5178	-3.76564	C.1
  1645	2	 19.0886	 4.08028	-4.50769	C.1
  1646	1	-9.19069	 7.96921	-2.52164	N.3
  1647	2	-8.56599	 8.86743	-2.36722	C.1
  1648	2	-8.62925	 8.57263	-3.25755	C.1
  1649	2	-10.1504	 8.24461	-2.04842	C.1
  1650	2	-10.2137	 7.94981	-2.93875	C.1
  1651	2	-8.76078	 7.23778	 -1.8138	C.1
  1652	2	-8.82404	 6.94299	-2.70413	C.1
  1653	1	 8.16746	0.244471	 3.59236	N.3
  1654	2	 9.20803	0.547097	 3.80805	C.1
  1655	2	 9.07389	0.147166	 2.96801	C.1
  1656	2	 7.59304	 1.17176	 3.76855	C.1
  1657	2	  7.4589	0.771827	 2.92851	C.1
  1658	2	 7.90251	-0.385546	 4.46054	C.1
  1659	2	 7.76837	-0.785477	 3.62051	C.1
  1660	1	 15.4126	-2.28188	 10.2163	N.3
  1661	2	 16.4044	-2.29222	 10.7031	C.1
  1662	2	 16.4164	-2.39626	 9.76896	C.1
  1663	2	 14.9632	 -1.3397	 10.5785	C.1
  1664	2	 14.9752	-1.44374	 9.64437	C.1
  1665	2	 14.8521	-3.05766	 10.7684	C.1
  1666	2	 14.8641	-3.16171	  9.8343	C.1
  1667	1	 4.10567	 8.34644	-10.8802	N.3
  1668	2	 5.11786	  8.3349	-10.4373	C.1
  1669	2	 5.09212	 8.30712	-11.3765	C.1
  1670	2	  3.6402	 9.23839	-10.4235	C.1
  1671	2	 3.61446	 9.21061	-11.3627	C.1
  1672	2	 3.59755	 7.50771	-10.3711	C.1
  1673	2	 3.57182	 7.47993	-11.3104	C.1
  1674	1	 6.55996	-2.47904	 9.23945	N.3
  1675	2	 7.51229	-2.50765	 9.79905	C.1
  1676	2	  7.5925	-2.60833	 8.86791	C.1
  1677	2	 6.10008	-1.53092	 9.57179	C.1
  1678	2	 6.18029	 -1.6316	 8.64065	C.1
  1679	2	 5.94719	-3.24752	 9.74423	C.1
  1680	2	  6.0274	 -3.3482	 8.81308	C.1
  1681	1	-7.48897	 4.09327	-12.5634	N.3
  1682	2	-6.45439	 4.17164	-12.1834	C.1
  1683	2	-6.55001	  3.6936	-12.9871	C.1
  1684	2	-7.82521	 5.14518	-12.5994	C.1
  1685	2	-7.92083	 4.66713	-13.4031	C.1
  1686	2	-8.04389	 3.68007	-11.7019	C.1
  1687	2	 -8.1395	 3.20202	-12.5056	C.1
  1688	1	 10.3696	-15.4376	 3.59627	N.3
  1689	2	 11.3739	-15.4997	 4.05277	C.1
  1690	2	 11.3643	-15.4309	 3.11535	C.1
  1691	2	 9.89925	-14.5949	 4.13423	C.1
  1692	2	  9.8897	 -14.526	  3.1968	C.1
  1693	2	 9.84987	-16.3216	 4.00795	C.1
  1694	2	 9.84033	-16.2527	 3.07052	C.1
  1695	1	 3.35324	 8.86657	0.0808857	N.3
  1696	2	 4.04445	 8.89328	0.942521	C.1
  1697	2	 4.35479	 8.41421	0.195669	C.1
  1698	2	 3.13679	 9.93445	-0.102496	C.1
  1699	2	 3.44713	 9.45539	-0.849348	C.1
  1700	2	 2.41298	 8.49058	 0.52291	C.1
  1701	2	 2.72331	 8.01151	-0.223942	C.1
  1702	1	-1.70916	 10.8537	 8.55387	N.3
  1703	2	-0.835767	 11.2109	 9.12878	C.1
  1704	2	-0.637644	  10.849	 8.28416	C.1
  1705	2	-2.38068	 11.7311	 8.54348	C.1
  1706	2	-2.18256	 11.3692	 7.69887	C.1
  1707	2	 -2.2082	  10.162	 9.25626	C.1
  1708	2	-2.01008	 9.80012	 8.41165	C.1
  1709	1	-2.74426	-2.30276	0.106753	N.3
  1710	2	 -2.1949	-2.01142	 1.02011	C.1
  1711	2	-1.68315	-2.02109	0.231685	C.1
  1712	2	-3.60623	-1.61153	0.0991393	C.1
  1713	2	-3.09448	 -1.6212	-0.689287	C.1
  1714	2	-3.19927	-3.27083	0.383649	C.1
  1715	2	-2.68752	 -3.2805	-0.404778	C.1
  1716	1	-16.7882	-11.7573	-19.5056	N.3
  1717	2	-15.7422	-11.7956	-19.1517	C.1
  1718	2	-15.8473	 -11.638	-20.0724	C.1
  1719	2	-17.2513	-11.0034	-18.8437	C.1
  1720	2	-17.3564	-10.8457	-19.7645	C.1
  1721	2	-17.2135	-12.7094	-19.1402	C.1
  1722	2	-17.3187	-12.5517	-20.0609	C.1
  1723	1	 2.46145	-10.5403	 12.5449	N.3
  1724	2	 3.45305	-10.5652	 13.0317	C.1
  1725	2	  3.4691	-10.4763	  12.096	C.1
  1726	2	 1.93524	-9.73253	 13.0848	C.1
  1727	2	 1.95129	-9.64359	 12.1492	C.1
  1728	2	 1.97198	-11.4564	 12.9216	C.1
  1729	2	 1.98803	-11.3675	 11.9859	C.1
  1730	1	 16.7816	-11.9635	-11.1768	N.3
  1731	2	  17.789	 -12.069	-10.7352	C.1
  1732	2	 17.7694	-11.9869	-11.6714	C.1
  1733	2	 16.3502	-11.1115	-10.6211	C.1
  1734	2	 16.3306	-11.0293	-11.5573	C.1
  1735	2	 16.2351	-12.8333	-10.7698	C.1
  1736	2	 16.2155	-12.7511	 -11.706	C.1
  1737	1	-4.99161	-10.6006	 7.53354	N.3
  1738	2	 -3.9181	-10.8038	 7.69843	C.1
  1739	2	-4.20098	-10.8505	 6.80321	C.1
  1740	2	-5.14152	-9.62163	 8.02343	C.1
  1741	2	 -5.4244	-9.66827	 7.12822	C.1
  1742	2	-5.49088	-11.3064	 8.22159	C.1
  1743	2	-5.77376	-11.3531	 7.32638	C.1
  1744	1	 -15.417	 6.37482	 12.8397	N.3
  1745	2	 -14.451	 6.84656	 12.5845	C.1
  1746	2	-15.0068	 6.65203	 11.8518	C.1
  1747	2	-15.8473	 7.06758	 13.5852	C.1
  1748	2	-16.4032	 6.87305	 12.8525	C.1
  1749	2	 -15.119	 5.50212	 13.4483	C.1
  1750	2	-15.6749	 5.30758	 12.7156	C.1
  1751	1	 17.9884	-11.1886	-0.677579	N.3
  1752	2	 18.9883	-11.0956	-1.13846	C.1
  1753	2	  18.271	-11.1375	-1.74454	C.1
  1754	2	 17.9567	-10.3408	0.0302466	C.1
  1755	2	 17.2394	-10.3827	-0.575834	C.1
  1756	2	 18.0961	-12.0665	-0.0153991	C.1
  1757	2	 17.3788	-12.1085	-0.62148	C.1
  1758	1	 14.9434	-8.06022	0.977048	N.3
  1759	2	 15.9271	-8.09714	 1.47893	C.1
  1760	2	 15.9542	-7.90233	0.559735	C.1
  1761	2	 14.3724	-7.34229	 1.59297	C.1
  1762	2	 14.3995	-7.14748	0.673783	C.1
  1763	2	   14.49	-9.03345	 1.23803	C.1
  1764	2	 14.5171	-8.83864	0.318841	C.1
  1765	1	 -19.582	 15.9711	-6.83077	N.3
  1766	2	-18.5699	 15.8785	-6.39719	C.1
  1767	2	-18.6198	 15.7506	-7.32712	C.1
  1768	2	-19.9202	 16.9605	-6.47362	C.1
  1769	2	-19.9701	 16.8326	-7.40354	C.1
  1770	2	-20.1811	 15.2662	-6.22661	C.1
  1771	2	 -20.231	 15.1383	-7.15653	C.1
  1772	1	 13.3227	-18.4795	 10.8127	N.3
  1773	2	 14.3486	-18.4864	 11.2229	C.1
  1774	2	 14.2908	-18.3652	 10.2926	C.1
  1775	2	 12.8132	-17.7093	 11.4195	C.1
  1776	2	 12.7554	-17.5882	 10.4892	C.1
  1777	2	 12.8929	-19.4244	 11.1912	C.1
  1778	2	 12.8351	-19.3032	 10.2609	C.1
  1779	1	 16.3379	-16.2191	 3.02225	N.3
  1780	2	  17.369	 -15.888	 2.80292	C.1
  1781	2	 16.7677	-15.8268	 2.08299	C.1
  1782	2	 16.0661	-15.6253	 3.91347	C.1
  1783	2	 15.4648	 -15.564	 3.19353	C.1
  1784	2	 16.4806	 -17.236	 3.43026	C.1
  1785	2	 15.8793	-17.1748	 2.71033	C.1
  1786	1	  8.2956	 6.27473	-0.723999	N.3
  1787	2	 9.27222	 6.56301	-1.15296	C.1
  1788	2	 8.69571	 6.10918	-1.74056	C.1
  1789	2	 7.90426	 7.22748	-0.324027	C.1
  1790	2	 7.32775	 6.77365	-0.911634	C.1
  1791	2	 8.57507	 5.71443	0.186396	C.1
  1792	2	 7.99857	 5.26061	-0.40121	C.1
  1793	1	  12.123	 8.18336	-19.0024	N.3
  1794	2	 13.0841	 8.20254	-18.4577	C.1
  1795	2	 13.1516	 8.29276	-19.3909	C.1
  1796	2	   11.53	  8.9663	-18.4962	C.1
  1797	2	 11.5975	 9.05652	-19.4294	C.1
  1798	2	 11.6536	  7.2459	-18.6536	C.1
  1799	2	  11.721	 7.33612	-19.5868	C.1
  1800	1	 3.45284	-15.1811	-4.51723	N.3
  1801	2	 4.33253	-15.2185	-3.84965	C.1
  1802	2	 4.47568	-15.5474	-4.71852	C.1
  1803	2	 3.13785	-14.1235	-4.46097	C.1
  1804	2	   3.281	-14.4524	-5.32984	C.1
  1805	2	 2.67341	-15.7079	-3.93774	C.1
  1806	2	 2.81656	-16.0368	-4.80661	C.1
  1807	1	 3.55129	 14.9513	 19.5452	N.3
  1808	2	  4.6086	 14.6903	  19.732	C.1
  1809	2	 4.38332	 14.8244	 18.8293	C.1
  1810	2	 3.38557	 15.8218	 20.2053	C.1
  1811	2	  3.1603	 15.9559	 19.3026	C.1
  1812	2	 2.99762	 14.1407	 20.0524	C.1
  1813	2	 2.77235	 14.2748	 19.1497	C.1
  1814	1	 14.1241	 10.0005	 19.6067	N.3
  1815	2	 15.2095	 9.94195	  19.805	C.1
  1816	2	 14.9616	 9.84035	  18.904	C.1
  1817	2	 13.8344	 10.9616	 20.0684	C.1
  1818	2	 13.5865	   10.86	 19.1673	C.1
  1819	2	 13.7001	  9.2502	 20.2983	C.1
  1820	2	 13.4522	  9.1486	 19.3973	C.1
  1821	1	 17.3224	-4.99835	 6.28164	N.3
  1822	2	 18.3379	-4.72114	 6.61765	C.1
  1823	2	 18.2998	-5.18699	 5.80209	C.1
  1824	2	 16.7791	-4.03637	 6.29922	C.1
  1825	2	 16.7411	-4.50221	 5.48366	C.1
  1826	2	 16.9073	-5.53876	  7.1514	C.1
  1827	2	 16.8692	-6.00461	 6.33584	C.1
  1828	1	-1.24043	-2.90356	  4.6842	N.3
  1829	2	-0.630515	-2.13879	 5.19804	C.1
  1830	2	-0.700431	-2.03479	 4.26643	C.1
  1831	2	-2.19857	-2.87357	 5.23369	C.1
  1832	2	-2.26848	-2.76957	 4.30208	C.1
  1833	2	-0.787342	-3.85432	  5.0183	C.1
  1834	2	-0.857257	-3.75033	 4.08669	C.1
  1835	1	-18.8698	-4.05561	 17.3389	N.3
  1836	2	  -18.35	-4.12124	 18.3118	C.1
  1837	2	-17.7889	-4.12484	 17.5576	C.1
  1838	2	-19.5017	-3.15607	 17.4503	C.1
  1839	2	-18.9406	-3.15968	 16.6962	C.1
  1840	2	-19.5993	-4.88412	  17.386	C.1
  1841	2	-19.0382	-4.88772	 16.6318	C.1
  1842	1	-13.7695	-1.59977	-6.40096	N.3
  1843	2	-12.7874	-1.60145	-5.89462	C.1
  1844	2	 -12.754	-1.66028	-6.83218	C.1
  1845	2	-14.2567	-0.690917	-6.00414	C.1
  1846	2	-14.2233	-0.749751	-6.94171	C.1
  1847	2	-14.3145	-2.41868	-5.89778	C.1
  1848	2	-14.2811	-2.47752	-6.83535	C.1
  1849	1	-0.519619	-1.80393	 8.69001	N.3
  1850	2	0.269483	-2.45447	 9.10836	C.1
  1851	2	0.552298	-1.86865	  8.4298	C.1
  1852	2	-0.945389	-1.31573	 9.58513	C.1
  1853	2	-0.662574	-0.729911	 8.90657	C.1
  1854	2	-1.30717	-2.52032	 8.39437	C.1
  1855	2	-1.02436	 -1.9345	 7.71582	C.1
  1856	1	 7.83016	-13.6999	 16.7979	N.3
  1857	2	 8.08144	-14.0266	 17.8232	C.1
  1858	2	 8.76731	 -14.135	 17.1896	C.1
  1859	2	 7.48317	-12.6608	 16.9418	C.1
  1860	2	 8.16904	-12.7692	 16.3083	C.1
  1861	2	 6.89706	-14.2498	 16.5792	C.1
  1862	2	 7.58294	-14.3582	 15.9456	C.1
  1863	1	 19.9456	 5.24471	 11.7262	N.3
  1864	2	 21.0254	 5.47061	 11.6642	C.1
  1865	2	 20.5588	 5.52206	 10.8498	C.1
  1866	2	 19.5891	 5.92996	 12.5162	C.1
  1867	2	 19.1224	 5.98141	 11.7018	C.1
  1868	2	 19.9222	 4.25637	 12.2196	C.1
  1869	2	 19.4555	 4.30783	 11.4052	C.1
  1870	1	 11.8185	-1.91145	-1.00683	N.3
  1871	2	 12.8548	-2.10083	-0.673257	C.1
  1872	2	 12.7749	-1.61071	-1.47139	C.1
  1873	2	 11.3489	-1.44696	-0.121071	C.1
  1874	2	 11.2691	-0.956846	-0.919201	C.1
  1875	2	 11.3717	-2.92175	-1.02898	C.1
  1876	2	 11.2918	-2.43163	-1.82711	C.1
  1877	1	 18.6492	 13.6556	 2.98532	N.3
  1878	2	  19.508	 14.3221	 3.18273	C.1
  1879	2	 19.1617	 14.3641	 2.30987	C.1
  1880	2	 17.9359	 13.9185	 3.78714	C.1
  1881	2	 17.5895	 13.9604	 2.91428	C.1
  1882	2	 19.0232	 12.6632	 3.29537	C.1
  1883	2	 18.6768	 12.7051	 2.42251	C.1
  1884	1	-10.8177	-6.28041	 3.57061	N.3
  1885	2	-9.83861	-6.23873	 4.08112	C.1
  1886	2	-9.79854	-6.32019	 3.14551	C.1
  1887	2	-11.3349	-5.37742	 3.94205	C.1
  1888	2	-11.2948	-5.45888	 3.00644	C.1
  1889	2	-11.3396	 -7.1029	 4.09208	C.1
  1890	2	-11.2996	-7.18436	 3.15647	C.1
  1891	1	-6.76118	 19.6774	 -2.5738	N.3
  1892	2	-5.92401	 19.7272	-1.85438	C.1
  1893	2	-5.67386	 19.7392	-2.76041	C.1
  1894	2	-7.41689	 20.5081	-2.25625	C.1
  1895	2	-7.16674	 20.5201	-3.16227	C.1
  1896	2	-7.31786	  18.779	-2.25174	C.1
  1897	2	-7.06771	 18.7909	-3.15776	C.1
  1898	1	-15.3697	 19.7006	-16.2125	N.3
  1899	2	-14.6953	 20.4948	-15.8447	C.1
  1900	2	-14.5888	 20.2677	-16.7506	C.1
  1901	2	-16.3727	 20.0727	-15.9361	C.1
  1902	2	-16.2661	 19.8456	 -16.842	C.1
  1903	2	-15.2009	 18.8749	 -15.498	C.1
  1904	2	-15.0944	 18.6478	-16.4039	C.1
  1905	1	-4.79994	-5.78833	 18.1158	N.3
  1906	2	-4.11519	-5.11499	 18.6622	C.1
  1907	2	-4.18475	-4.95129	 17.7392	C.1
  1908	2	-5.74514	-5.70051	 18.6812	C.1
  1909	2	-5.81471	-5.53682	 17.7582	C.1
  1910	2	-4.43515	-6.79504	 18.3884	C.1
  1911	2	-4.50472	-6.63135	 17.4654	C.1
  1912	1	 16.9693	-5.43008	 8.72923	N.3
  1913	2	 17.8291	-5.31824	  9.4141	C.1
  1914	2	 18.0047	-5.80202	 8.62752	C.1
  1915	2	 16.6318	-4.38926	  8.5754	C.1
  1916	2	 16.8075	-4.87304	 7.78882	C.1
  1917	2	 16.1834	-5.85708	 9.37805	C.1
  1918	2	 16.3591	-6.34086	 8.59147	C.1
  1919	1	  4.1969	 9.31881	 13.7042	N.3
  1920	2	 5.20995	 9.42989	 14.1312	C.1
  1921	2	 5.17633	 9.35977	 13.1944	C.1
  1922	2	  3.6473	 10.1769	 14.1313	C.1
  1923	2	 3.61368	 10.1068	 13.1946	C.1
  1924	2	 3.78386	 8.45479	 14.2553	C.1
  1925	2	 3.75024	 8.38467	 13.3186	C.1
  1926	1	-5.98021	-17.8842	-16.4865	N.3
  1927	2	-4.94743	-17.7248	-16.1275	C.1
  1928	2	-5.02327	-18.2343	-16.9138	C.1
  1929	2	-6.38665	-16.8587	  -16.55	C.1
  1930	2	-6.46249	-17.3683	-17.3363	C.1
  1931	2	-6.49278	-18.3047	-15.6026	C.1
  1932	2	-6.56862	-18.8143	-16.3889	C.1
  1933	1	-10.3172	-19.8918	 12.1059	N.3
  1934	2	-9.55012	-20.5571	 12.5418	C.1
  1935	2	-9.53226	-20.4863	 11.6046	C.1
  1936	2	-10.1682	-18.9428	 12.6518	C.1
  1937	2	-10.1503	-18.8721	 11.7146	C.1
  1938	2	-11.2601	-20.2817	   12.53	C.1
  1939	2	-11.2422	 -20.211	 11.5928	C.1
  1940	1	 16.8637	 4.52389	-4.45375	N.3
  1941	2	 17.2831	 3.92106	-3.62816	C.1
  1942	2	 17.8137	 3.96192	-4.40301	C.1
  1943	2	 16.6553	 5.49762	-3.97493	C.1
  1944	2	 17.1859	 5.53849	-4.74978	C.1
  1945	2	 15.8568	 4.09168	-4.59587	C.1
  1946	2	 16.3874	 4.13255	-5.37072	C.1
  1947	1	 17.8993	-4.67015	 9.99978	N.3
  1948	2	 18.9597	-4.84825	 10.2545	C.1
  1949	2	 18.7829	-4.72945	 9.33894	C.1
  1950	2	 17.6241	-3.81732	 10.6461	C.1
  1951	2	 17.4473	-3.69851	 9.73058	C.1
  1952	2	 17.3794	-5.52308	  10.472	C.1
  1953	2	 17.2026	-5.40428	 9.55648	C.1
  1954	1	-6.27779	 8.21418	-13.7024	N.3
  1955	2	-5.36627	 7.79402	-14.1645	C.1
  1956	2	-6.05949	 8.00144	-14.7645	C.1
  1957	2	-5.89308	 9.06766	-13.1155	C.1
  1958	2	 -6.5863	 9.27508	-13.7156	C.1
  1959	2	-6.53418	 7.46974	-12.9272	C.1
  1960	2	 -7.2274	 7.67716	-13.5273	C.1
  1961	1	 -1.0205	-11.7704	-9.18347	N.3
  1962	2	0.0822877	-11.7595	-9.11527	C.1
  1963	2	-0.266148	-11.6334	-9.97916	C.1
  1964	2	-1.32713	-11.0145	-8.43811	C.1
  1965	2	-1.67556	-10.8885	  -9.302	C.1
  1966	2	-1.29399	-12.7261	-8.70121	C.1
  1967	2	-1.64243	-12.6001	 -9.5651	C.1
  1968	1	 13.7383	 12.2961	-19.7461	N.3
  1969	2	 14.7031	 11.7584	-19.7747	C.1
  1970	2	 14.2584	  11.826	-20.6001	C.1
  1971	2	 14.0001	 13.2597	 -19.273	C.1
  1972	2	 13.5554	 13.3273	-20.0983	C.1
  1973	2	 13.1787	 11.7689	-18.9525	C.1
  1974	2	  12.734	 11.8366	-19.7779	C.1
  1975	1	-16.7025	-19.9349	 10.4977	N.3
  1976	2	-15.9346	 -19.285	 10.9547	C.1
  1977	2	-15.6556	 -19.758	 10.1918	C.1
  1978	2	-17.5534	-19.2479	 10.3396	C.1
  1979	2	-17.2743	-19.7209	 9.57675	C.1
  1980	2	-17.0381	-20.5623	  11.343	C.1
  1981	2	-16.7591	-21.0353	 10.5801	C.1
  1982	1	-10.3302	 13.0413	-5.46427	N.3
  1983	2	-9.67105	 13.0744	-4.57806	C.1
  1984	2	-9.33946	 13.5145	-5.33966	C.1
  1985	2	-11.2909	 13.4279	 -5.0791	C.1
  1986	2	-10.9593	  13.868	 -5.8407	C.1
  1987	2	-10.5259	 11.9616	-5.59326	C.1
  1988	2	-10.1943	 12.4016	-6.35485	C.1
  1989	1	-2.04906	-2.81212	-17.7672	N.3
  1990	2	-1.16169	 -2.2914	-17.3643	C.1
  1991	2	-1.09465	-2.55873	 -18.263	C.1
  1992	2	-2.87491	-2.11242	-17.5454	C.1
  1993	2	-2.80788	-2.37974	-18.4441	C.1
  1994	2	-2.21112	-3.63156	 -17.044	C.1
  1995	2	-2.14408	-3.89889	-17.9427	C.1
  1996	1	-1.24475	-19.6954	 16.2914	N.3
  1997	2	-0.21638	-19.5562	 16.6709	C.1
  1998	2	-0.290658	-19.6363	 15.7372	C.1
  1999	2	-1.79496	-18.8463	 16.7355	C.1
  2000	2	-1.86924	-18.9264	 15.8019	C.1
  2001	2	-1.61149	-20.5635	 16.8683	C.1
  2002	2	-1.68577	-20.6436	 15.9347	C.1
  2003	1	-9.53144	 1.36736	 6.71566	N.3
  2004	2	-9.20035	 1.16412	 7.75005	C.1
  2005	2	-8.52585	 1.11421	 7.09725	C.1
  2006	2	-10.0331	  2.3483	 6.79913	C.1
  2007	2	-9.35856	 2.29839	 6.14632	C.1
  2008	2	-10.3727	0.664511	   6.577	C.1
  2009	2	-9.69815	  0.6146	 5.92419	C.1
  2010	1	  15.284	-0.672921	 17.1048	N.3
  2011	2	 16.1589	-0.189038	 17.5753	C.1
  2012	2	 16.2355	-0.341588	  16.651	C.1
  2013	2	 14.4433	-0.0222446	 17.4056	C.1
  2014	2	 14.5199	-0.174795	 16.4813	C.1
  2015	2	 15.1351	-1.57865	 17.7198	C.1
  2016	2	 15.2117	-1.73121	 16.7955	C.1
  2017	1	-13.9657	  11.899	-11.1522	N.3
  2018	2	-13.2322	 11.5837	-10.3883	C.1
  2019	2	-12.9424	 11.5019	-11.2788	C.1
  2020	2	-14.2336	 12.9237	-10.8374	C.1
  2021	2	-13.9438	 12.8418	-11.7278	C.1
  2022	2	-14.8661	 11.3123	-10.8952	C.1
  2023	2	-14.5762	 11.2305	-11.7856	C.1
  2024	1	-9.70311	 17.0262	-0.881282	N.3
  2025	2	-8.85929	 17.4204	-0.286746	C.1
  2026	2	-8.70131	 17.3556	-1.21111	C.1
  2027	2	-10.5437	 17.6828	-0.593033	C.1
  2028	2	-10.3857	  17.618	-1.51739	C.1
  2029	2	-9.94331	 16.0726	-0.377527	C.1
  2030	2	-9.78533	 16.0077	-1.30189	C.1
  2031	1	 8.83565	 13.7351	-0.362302	N.3
  2032	2	 9.80166	 14.0298	0.0859207	C.1
  2033	2	 9.77341	 14.0519	-0.853395	C.1
  2034	2	 8.10972	 14.3955	0.145411	C.1
  2035	2	 8.08147	 14.4176	-0.793904	C.1
  2036	2	 8.63795	 12.7469	0.0907364	C.1
  2037	2	  8.6097	  12.769	-0.848579	C.1
  2038	1	-19.1414	-0.219247	-2.58649	N.3
  2039	2	-18.5471	-0.982688	-2.05275	C.1
  2040	2	 -18.375	-0.914309	-2.97433	C.1
  2041	2	-18.9531	0.700388	-2.00369	C.1
  2042	2	 -18.781	0.768767	-2.92526	C.1
  2043	2	-20.1822	-0.478008	-2.32067	C.1
  2044	2	-20.0101	-0.409629	-3.24224	C.1
  2045	1	 5.52159	 8.67352	-1.13214	N.3
  2046	2	 6.54025	  8.2825	-0.958016	C.1
  2047	2	 6.24963	 8.25732	-1.85161	C.1
  2048	2	 5.55616	  9.6799	-0.677333	C.1
  2049	2	 5.26554	 9.65473	-1.57093	C.1
  2050	2	 4.90427	 8.09592	-0.420697	C.1
  2051	2	 4.61365	 8.07075	-1.31429	C.1
  2052	1	  9.3975	 18.4432	-11.2137	N.3
  2053	2	 10.4394	 18.7719	-11.3789	C.1
  2054	2	 9.83206	 19.0133	-12.0545	C.1
  2055	2	 9.16421	 18.8387	-10.2087	C.1
  2056	2	 8.55687	 19.0802	-10.8843	C.1
  2057	2	  9.4999	 17.3568	  -11.04	C.1
  2058	2	 8.89256	 17.5982	-11.7156	C.1
  2059	1	 9.25328	-5.90632	 18.4155	N.3
  2060	2	 9.92238	-5.74202	 19.2793	C.1
  2061	2	 10.0854	-5.18951	 18.5365	C.1
  2062	2	 8.24432	-5.81523	 18.8566	C.1
  2063	2	 8.40735	-5.26273	 18.1138	C.1
  2064	2	  9.3486	-6.99048	 18.2248	C.1
  2065	2	 9.51163	-6.43798	  17.482	C.1
  2066	1	 7.27969	 10.8778	 3.77027	N.3
  2067	2	 8.33336	 11.1722	 3.61531	C.1
  2068	2	 7.76442	 11.3219	 2.88218	C.1
  2069	2	 7.00209	 11.4112	 4.69724	C.1
  2070	2	 6.43315	 11.5609	  3.9641	C.1
  2071	2	 7.35705	  9.8254	 4.09797	C.1
  2072	2	  6.7881	  9.9751	 3.36483	C.1
  2073	1	-4.72443	-4.55404	-12.9757	N.3
  2074	2	-3.89315	-4.69206	-12.2609	C.1
  2075	2	-3.63477	-4.57681	-13.1573	C.1
  2076	2	-5.29576	-3.71483	-12.5396	C.1
  2077	2	-5.03738	-3.59958	 -13.436	C.1
  2078	2	-5.37195	-5.42811	-12.7818	C.1
  2079	2	-5.11357	-5.31286	-13.6782	C.1
  2080	1	-12.5072	 17.9055	-4.51431	N.3
  2081	2	-11.4024	 17.9198	 -4.5035	C.1
  2082	2	-11.7896	 17.5036	-5.25215	C.1
  2083	2	-12.7749	 18.9687	-4.37674	C.1
  2084	2	-13.1621	 18.5525	-5.12539	C.1
  2085	2	-12.7635	 17.4524	-3.53971	C.1
  2086	2	-13.1507	 17.0362	-4.28836	C.1
  2087	1	 19.6048	-1.38903	 9.51914	N.3
  2088	2	 20.5672	-1.51024	 10.0482	C.1
  2089	2	 20.6129	-1.58747	  9.1125	C.1
  2090	2	 19.2315	-0.418608	 9.89299	C.1
  2091	2	 19.2771	-0.495839	 8.95728	C.1
  2092	2	 18.9472	-2.12241	 10.0198	C.1
  2093	2	 18.9929	-2.19965	 9.08405	C.1
  2094	1	   11.39	-3.74951	 14.0978	N.3
  2095	2	 12.4226	-3.69346	 14.4871	C.1
  2096	2	 12.3517	-3.83008	 13.5598	C.1
  2097	2	 10.9279	-2.81833	 14.4724	C.1
  2098	2	 10.8571	-2.95495	 13.5451	C.1
  2099	2	 10.9257	-4.53181	  14.725	C.1
  2100	2	 10.8549	-4.66843	 13.7977	C.1
  2101	1	-0.668259	-9.00838	-8.09841	N.3
  2102	2	-0.154947	-9.46547	-7.23326	C.1
  2103	2	0.412514	-9.12995	-7.90334	C.1
  2104	2	-1.33576	 -8.2623	-7.63079	C.1
  2105	2	-0.768297	-7.92678	-8.30087	C.1
  2106	2	-1.36526	-9.80065	-8.42605	C.1
  2107	2	-0.797803	-9.46513	-9.09613	C.1
  2108	1	 -8.7995	 18.6919	 15.9878	N.3
  2109	2	-7.98892	 18.4231	 16.6889	C.1
  2110	2	-7.78876	 18.2972	 15.7792	C.1
  2111	2	-9.04829	 19.7294	 16.2751	C.1
  2112	2	-8.84813	 19.6035	 15.3653	C.1
  2113	2	-9.66153	 18.1121	  16.364	C.1
  2114	2	-9.46137	 17.9862	 15.4542	C.1
  2115	1	-12.8893	 9.05629	0.180382	N.3
  2116	2	-11.9706	 8.93019	 0.78111	C.1
  2117	2	 -11.837	 8.98068	-0.147984	C.1
  2118	2	-13.3689	  9.9418	 0.63509	C.1
  2119	2	-13.2353	 9.99229	-0.294004	C.1
  2120	2	-13.5289	 8.22115	0.518588	C.1
  2121	2	-13.3953	 8.27164	-0.410506	C.1
  2122	1	 15.4076	  15.808	 7.91002	N.3
  2123	2	 15.9129	 16.6707	  8.3805	C.1
  2124	2	 16.3067	 16.3619	 7.58477	C.1
  2125	2	 14.3611	 16.1494	 7.81486	C.1
  2126	2	 14.7549	 15.8406	 7.01913	C.1
  2127	2	 15.3582	 15.0672	 8.72829	C.1
  2128	2	  15.752	 14.7584	 7.93256	C.1
  2129	1	 11.4815	 9.78991	 12.2727	N.3
  2130	2	 12.4086	 9.90426	 12.8629	C.1
  2131	2	  12.528	 9.88403	 11.9308	C.1
  2132	2	 10.8412	  10.609	 12.6469	C.1
  2133	2	 10.9606	 10.5888	 11.7148	C.1
  2134	2	 11.0156	 8.88683	 12.7066	C.1
  2135	2	  11.135	  8.8666	 11.7745	C.1
  2136	1	 4.83344	 2.79171	-7.01752	N.3
  2137	2	 5.89783	 2.54928	-6.84662	C.1
  2138	2	 5.60522	 2.46037	-7.73548	C.1
  2139	2	 4.73322	 3.80515	-6.58886	C.1
  2140	2	 4.44061	 3.71624	-7.47772	C.1
  2141	2	 4.30819	 2.15406	-6.28378	C.1
  2142	2	 4.01557	 2.06515	-7.17264	C.1
  2143	1	 18.3135	 10.5549	 14.1058	N.3
  2144	2	 19.3892	  10.309	 14.1639	C.1
  2145	2	 19.0444	 10.3922	 13.2934	C.1
  2146	2	  18.227	 11.4597	  14.734	C.1
  2147	2	 17.8823	 11.5429	 13.8635	C.1
  2148	2	 17.8414	 9.77122	 14.7254	C.1
  2149	2	 17.4967	 9.85439	 13.8548	C.1
  2150	1	 9.17808	  8.4873	-17.2227	N.3
  2151	2	  10.204	 8.64747	 -16.845	C.1
  2152	2	 10.1063	 8.71436	-17.7775	C.1
  2153	2	 8.57755	 9.20443	-16.6345	C.1
  2154	2	 8.47979	 9.27132	 -17.567	C.1
  2155	2	  8.8993	 7.50968	-16.7898	C.1
  2156	2	 8.80154	 7.57657	-17.7223	C.1
  2157	1	-19.4773	  18.372	 13.7383	N.3
  2158	2	-18.4004	 18.1817	 13.8967	C.1
  2159	2	-18.6244	 18.5354	 13.0551	C.1
  2160	2	-19.7518	 19.0042	  14.602	C.1
  2161	2	-19.9757	 19.3579	 13.7604	C.1
  2162	2	-19.9437	 17.3997	 13.9787	C.1
  2163	2	-20.1676	 17.7534	 13.1371	C.1
  2164	1	 -3.1435	 17.0553	-4.18386	N.3
  2165	2	-2.54709	  16.731	-3.31207	C.1
  2166	2	-2.17522	 16.5241	-4.15022	C.1
  2167	2	-3.30402	 18.1318	 -3.9937	C.1
  2168	2	-2.93214	 17.9249	-4.83186	C.1
  2169	2	-4.13722	 16.6134	-3.98857	C.1
  2170	2	-3.76534	 16.4065	-4.82672	C.1
  2171	1	 7.69833	 19.9715	 10.4495	N.3
  2172	2	  8.7824	 19.9132	 10.6552	C.1
  2173	2	 8.54167	 20.4629	 9.93169	C.1
  2174	2	 7.27155	 20.2653	 11.4254	C.1
  2175	2	 7.03081	  20.815	 10.7019	C.1
  2176	2	 7.40215	 18.9114	 10.3532	C.1
  2177	2	 7.16142	 19.4611	 9.62974	C.1
  2178	1	 8.61674	-13.8118	 17.1564	N.3
  2179	2	 9.68029	-14.0769	 17.0169	C.1
  2180	2	 9.08218	-14.4998	 16.4278	C.1
  2181	2	 8.62303	 -12.708	 17.1074	C.1
  2182	2	 8.02491	-13.1309	 16.5184	C.1
  2183	2	 8.44406	-14.0161	 18.2285	C.1
  2184	2	 7.84595	 -14.439	 17.6394	C.1
  2185	1	 17.8812	 -8.8334	 12.6418	N.3
  2186	2	 18.9174	-9.17177	 12.8229	C.1
  2187	2	 18.7067	-8.99206	 11.9246	C.1
  2188	2	 17.7712	-7.97667	 13.3308	C.1
  2189	2	 17.5605	-7.79696	 12.4325	C.1
  2190	2	 17.2711	-9.62134	 13.1191	C.1
  2191	2	 17.0604	-9.44163	 12.2208	C.1
  2192	1	 11.1736	-1.78192	 1.15914	N.3
  2193	2	 12.0293	-2.42902	 1.42366	C.1
  2194	2	 12.2346	-1.70524	0.860092	C.1
  2195	2	 10.7514	-1.50692	 2.14249	C.1
  2196	2	 10.9567	-0.783136	 1.57892	C.1
  2197	2	 10.4322	-2.49551	0.756624	C.1
  2198	2	 10.6375	-1.77173	0.193052	C.1
  2199	1	 8.04692	 4.36907	-5.25223	N.3
  2200	2	 9.10178	 4.50273	-4.95174	C.1
  2201	2	 8.96964	 4.26031	-5.85028	C.1
  2202	2	 7.57506	 5.32069	-4.94789	C.1
  2203	2	 7.44292	 5.07828	-5.84643	C.1
  2204	2	 7.66212	 3.64742	-4.50926	C.1
  2205	2	 7.52998	   3.405	 -5.4078	C.1
  2206	1	-11.7889	 10.3184	 4.90982	N.3
  2207	2	-11.0564	 10.7404	 5.62127	C.1
  2208	2	-10.6884	 10.3822	 4.83392	C.1
  2209	2	-12.5025	 11.1486	 4.75982	C.1
  2210	2	-12.1346	 10.7904	 3.97247	C.1
  2211	2	-12.3598	 9.60352	 5.52941	C.1
  2212	2	-11.9919	 9.24531	 4.74206	C.1
  2213	1	 6.27751	 -19.451	-0.155262	N.3
  2214	2	 7.01021	-19.4412	0.671753	C.1
  2215	2	 7.33236	-19.7797	-0.143866	C.1
  2216	2	 5.92013	 -18.406	-0.188453	C.1
  2217	2	 6.24228	-18.7445	-1.00407	C.1
  2218	2	 5.41898	 -19.998	0.274342	C.1
  2219	2	 5.74112	-20.3365	-0.541277	C.1
  2220	1	 13.4698	-7.84432	-14.3495	N.3
  2221	2	 14.4557	-7.89332	 -13.853	C.1
  2222	2	 14.4773	-7.94911	-14.7911	C.1
  2223	2	 13.0286	-6.91608	-13.9438	C.1
  2224	2	 13.0501	-6.97187	-14.8819	C.1
  2225	2	 12.8929	-8.63988	-13.8444	C.1
  2226	2	 12.9144	-8.69568	-14.7825	C.1
  2227	1	 -1.6435	 15.6229	-15.5207	N.3
  2228	2	-1.40315	 15.2696	-14.5017	C.1
  2229	2	-0.659858	 15.4461	-15.0494	C.1
  2230	2	-2.30864	 16.4861	-15.3384	C.1
  2231	2	-1.56535	 16.6627	-15.8861	C.1
  2232	2	-2.33363	  14.848	-15.9004	C.1
  2233	2	-1.59035	 15.0246	-16.4481	C.1
  2234	1	-3.51455	 13.5235	 17.8171	N.3
  2235	2	 -2.5091	 13.1183	 17.6031	C.1
  2236	2	-2.85268	 13.7007	 16.9502	C.1
  2237	2	-3.40104	 13.9619	  18.825	C.1
  2238	2	-3.74463	 14.5443	  18.172	C.1
  2239	2	-4.11812	 12.6168	 18.0025	C.1
  2240	2	-4.46171	 13.1992	 17.3496	C.1
  2241	1	-10.0314	-16.2295	 -7.1414	N.3
  2242	2	 -8.9795	-15.8996	-7.21634	C.1
  2243	2	-9.39262	-16.1075	 -8.0347	C.1
  2244	2	-10.5106	-15.4169	-6.56606	C.1
  2245	2	-10.9237	-15.6249	-7.38442	C.1
  2246	2	-9.98438	-17.0601	-6.41424	C.1
  2247	2	-10.3975	 -17.268	 -7.2326	C.1
  2248	1	 5.93384	 -10.119	-18.8382	N.3
  2249	2	  6.6864	 -10.928	 -18.839	C.1
  2250	2	 6.32609	-10.7163	 -19.681	C.1
  2251	2	 6.45553	-9.28924	-18.3281	C.1
  2252	2	 6.09522	 -9.0775	-19.1701	C.1
  2253	2	 5.20007	-10.4573	-18.0846	C.1
  2254	2	 4.83975	-10.2455	-18.9265	C.1
  2255	1	-16.3821	 6.89718	-10.3923	N.3
  2256	2	-15.3706	 6.90774	-9.94778	C.1
  2257	2	-15.3948	 6.93041	-10.8872	C.1
  2258	2	-16.8882	 7.74045	-9.88861	C.1
  2259	2	-16.9124	 7.76312	 -10.828	C.1
  2260	2	-16.8513	 6.00936	-9.93133	C.1
  2261	2	-16.8755	 6.03203	-10.8707	C.1
  2262	1	  7.2204	-5.99941	-11.3869	N.3
  2263	2	 7.91302	-6.08589	-10.5304	C.1
  2264	2	 8.32522	-6.00174	 -11.371	C.1
  2265	2	 6.56549	-5.15763	-11.0982	C.1
  2266	2	  6.9777	-5.07347	-11.9388	C.1
  2267	2	 6.56437	-6.88096	-11.2713	C.1
  2268	2	 6.97657	 -6.7968	-12.1119	C.1
  2269	1	-13.6812	-7.86877	 17.2326	N.3
  2270	2	-12.6163	-7.87231	 16.9381	C.1
  2271	2	-13.2194	-8.11843	 16.2604	C.1
  2272	2	 -13.826	-6.85384	 17.6447	C.1
  2273	2	-14.4291	-7.09996	  16.967	C.1
  2274	2	-13.6968	-8.51098	 18.1316	C.1
  2275	2	-14.2999	-8.75709	 17.4539	C.1
  2276	1	-12.9417	 4.01347	-16.3563	N.3
  2277	2	-11.9431	  3.7093	-15.9941	C.1
  2278	2	-12.0985	 3.56183	-16.9094	C.1
  2279	2	-13.0188	 5.06634	-16.0301	C.1
  2280	2	-13.1742	 4.91888	-16.9454	C.1
  2281	2	-13.6301	 3.48597	-15.6717	C.1
  2282	2	-13.7855	  3.3385	-16.5869	C.1
  2283	1	 7.07971	-5.50854	-6.24027	N.3
  2284	2	  7.8653	-6.25361	-6.01976	C.1
  2285	2	 8.11107	-5.58208	-6.62987	C.1
  2286	2	 6.78496	-5.14816	-5.23822	C.1
  2287	2	 7.03073	-4.47663	-5.84833	C.1
  2288	2	 6.22022	-6.13115	-6.54766	C.1
  2289	2	 6.46599	-5.45961	-7.15777	C.1
  2290	1	-17.8216	-18.2018	-7.58131	N.3
  2291	2	-16.7323	-18.3605	-7.48558	C.1
  2292	2	-17.0579	-18.3434	-8.36722	C.1
  2293	2	-17.9946	-17.2793	-6.99832	C.1
  2294	2	-18.3202	-17.2621	-7.87996	C.1
  2295	2	-18.2494	-18.9914	-6.93758	C.1
  2296	2	 -18.575	-18.9742	-7.81922	C.1
  2297	1	 2.71386	 3.22341	 14.2097	N.3
  2298	2	 3.24019	 4.11428	 14.5973	C.1
  2299	2	 3.43124	 3.89432	 13.7035	C.1
  2300	2	 1.65245	 3.44453	 14.4227	C.1
  2301	2	  1.8435	 3.22457	  13.529	C.1
  2302	2	 2.96236	 2.44138	 14.9496	C.1
  2303	2	 3.15341	 2.22141	 14.0559	C.1
  2304	1	-14.6921	-1.66202	 7.67722	N.3
  2305	2	-13.7208	-2.18088	 7.58661	C.1
  2306	2	-14.1623	-2.01396	 6.77371	C.1
  2307	2	-14.4441	-0.763496	 8.27053	C.1
  2308	2	-14.8856	-0.596575	 7.45762	C.1
  2309	2	-15.2491	-2.29208	 8.39387	C.1
  2310	2	-15.6906	-2.12516	 7.58097	C.1
  2311	1	-13.0862	 -5.5446	-4.36178	N.3
  2312	2	-12.0842	-5.64313	 -3.9067	C.1
  2313	2	-12.0959	-5.61795	-4.84629	C.1
  2314	2	-13.5037	-4.65173	-3.86244	C.1
  2315	2	-13.5155	-4.62655	-4.80203	C.1
  2316	2	-13.6532	 -6.3767	 -3.9068	C.1
  2317	2	-13.6649	-6.35152	-4.84639	C.1
  2318	1	-3.92166	 11.7564	-10.8363	N.3
  2319	2	-3.07142	  11.465	-10.1936	C.1
  2320	2	-2.84085	  11.944	-10.9688	C.1
  2321	2	-4.59522	 12.2866	-10.1391	C.1
  2322	2	-4.36464	 12.7656	-10.9143	C.1
  2323	2	-4.44419	 10.7991	-11.0135	C.1
  2324	2	-4.21361	 11.2782	-11.7887	C.1
  2325	1	-13.3955	-17.7358	-11.5939	N.3
  2326	2	-12.3996	 -17.722	-11.1155	C.1
  2327	2	-12.3915	-17.7356	-12.0553	C.1
  2328	2	-13.9054	-16.8666	-11.1407	C.1
  2329	2	-13.8974	-16.8802	-12.0806	C.1
  2330	2	-13.8936	-18.5984	-11.1156	C.1
  2331	2	-13.8855	 -18.612	-12.0555	C.1
  2332	1	 -6.0668	 6.04365	-16.1924	N.3
  2333	2	-5.08442	 6.07272	-15.6875	C.1
  2334	2	-5.05514	 6.15013	-16.6238	C.1
  2335	2	-6.64104	 6.83211	-15.6734	C.1
  2336	2	-6.61176	 6.90953	-16.6097	C.1
  2337	2	-6.51887	 5.10999	-15.8119	C.1
  2338	2	-6.48959	 5.18741	-16.7483	C.1
  2339	1	 5.04497	-17.8305	-1.61451	N.3
  2340	2	 5.91361	-18.4497	-1.90258	C.1
  2341	2	 5.56401	-17.9082	-2.58685	C.1
  2342	2	 5.40688	-17.2866	-0.723412	C.1
  2343	2	 5.05728	-16.7452	-1.40769	C.1
  2344	2	 4.33882	-18.5673	-1.19113	C.1
  2345	2	 3.98923	-18.0259	-1.87541	C.1
  2346	1	  19.021	 19.9372	 -16.253	N.3
  2347	2	 20.0274	  19.942	-15.7968	C.1
  2348	2	 20.0144	 19.9141	-16.7363	C.1
  2349	2	 18.5352	 20.8214	-15.8023	C.1
  2350	2	 18.5222	 20.7935	-16.7418	C.1
  2351	2	   18.52	 19.0902	-15.7506	C.1
  2352	2	  18.507	 19.0623	-16.6901	C.1
  2353	1	-10.1627	 14.4062	 3.05136	N.3
  2354	2	-9.17858	  14.536	 3.53667	C.1
  2355	2	-9.16671	 14.5559	 2.59696	C.1
  2356	2	-10.7849	 15.1837	  3.5301	C.1
  2357	2	-10.7731	 15.2036	 2.59038	C.1
  2358	2	-10.5424	 13.4691	 3.49688	C.1
  2359	2	-10.5306	  13.489	 2.55717	C.1
  2360	1	0.671458	-9.22511	 2.65085	N.3
  2361	2	 1.67605	-8.91555	 2.99123	C.1
  2362	2	 1.45714	-8.66549	 2.11194	C.1
  2363	2	0.00416152	-8.82229	 3.43399	C.1
  2364	2	-0.214748	-8.57223	  2.5547	C.1
  2365	2	0.662523	-10.3126	 2.84626	C.1
  2366	2	0.443613	-10.0625	 1.96697	C.1
  2367	1	 9.20973	 15.7687	-19.5235	N.3
  2368	2	 10.1155	 15.2044	-19.2369	C.1
  2369	2	 10.2293	 15.8093	-19.9474	C.1
  2370	2	 8.88114	   16.22	  -18.57	C.1
  2371	2	 8.99495	 16.8249	-19.2804	C.1
  2372	2	 8.46184	 14.9742	-19.6978	C.1
  2373	2	 8.57565	 15.5791	-20.4083	C.1
  2374	1	 13.0129	-5.16849	  6.0001	N.3
  2375	2	  13.802	-5.33614	 6.75514	C.1
  2376	2	 14.1117	-5.16495	  5.8843	C.1
  2377	2	 12.4015	-4.36451	 6.44801	C.1
  2378	2	 12.7112	-4.19332	 5.57716	C.1
  2379	2	 12.3706	 -6.0616	 6.10343	C.1
  2380	2	 12.6803	-5.89042	 5.23259	C.1
  2381	1	-0.905604	-0.478026	-13.7265	N.3
  2382	2	0.152518	-0.519785	 -13.411	C.1
  2383	2	0.0104398	-0.55517	-14.3395	C.1
  2384	2	 -1.2821	0.433246	-13.2278	C.1
  2385	2	-1.42418	0.397862	-14.1563	C.1
  2386	2	-1.37411	-1.29446	-13.1478	C.1
  2387	2	-1.51619	-1.32985	-14.0764	C.1
  2388	1	 4.31829	-11.4217	-10.3783	N.3
  2389	2	 5.33731	-11.4458	-9.95183	C.1
  2390	2	 5.29534	-11.4896	-10.8899	C.1
  2391	2	 3.87832	-10.5126	-9.93012	C.1
  2392	2	 3.83636	-10.5564	-10.8682	C.1
  2393	2	 3.80219	-12.2409	-9.84602	C.1
  2394	2	 3.76023	-12.2847	-10.7841	C.1
  2395	1	-2.23686	-8.81217	-0.65267	N.3
  2396	2	-1.15053	-8.95376	-0.508654	C.1
  2397	2	-1.42079	-8.81122	-1.39761	C.1
  2398	2	-2.48028	-7.99445	0.0494317	C.1
  2399	2	-2.75054	-7.85192	-0.839524	C.1
  2400	2	-2.67437	-9.70209	-0.165353	C.1
  2401	2	-2.94464	-9.55956	-1.05431	C.1
  2402	1	 -11.438	-14.5865	-5.47664	N.3
  2403	2	-10.3875	-14.9281	-5.49928	C.1
  2404	2	-10.6478	-14.3875	-6.22288	C.1
  2405	2	 -11.529	-14.1153	-4.48136	C.1
  2406	2	-11.7894	-13.5747	-5.20496	C.1
  2407	2	-12.0071	-15.5268	-5.36387	C.1
  2408	2	-12.2674	-14.9863	-6.08747	C.1
  2409	1	 8.36747	-3.34183	-13.8316	N.3
  2410	2	 9.37583	-2.90434	-13.7188	C.1
  2411	2	 8.89956	-2.62078	 -14.478	C.1
  2412	2	 7.88504	-3.11746	-12.8632	C.1
  2413	2	 7.40877	 -2.8339	-13.6224	C.1
  2414	2	 8.55595	-4.42904	 -13.774	C.1
  2415	2	 8.07968	-4.14548	-14.5332	C.1
  2416	1	 8.21473	-19.9955	-8.55925	N.3
  2417	2	 9.15928	-19.6022	-8.14204	C.1
  2418	2	 9.16615	-19.7589	-9.06887	C.1
  2419	2	 7.46172	-19.2655	-8.21155	C.1
  2420	2	 7.46859	-19.4221	-9.13838	C.1
  2421	2	 8.01288	-20.8838	-7.93392	C.1
  2422	2	 8.01976	-21.0404	-8.86075	C.1
  2423	1	-0.335191	 14.9454	-14.5744	N.3
  2424	2	0.419556	 14.8228	-13.7767	C.1
  2425	2	 0.72108	 15.2686	-14.5474	C.1
  2426	2	-1.17926	 15.4298	-14.0512	C.1
  2427	2	-0.877737	 15.8756	-14.8218	C.1
  2428	2	-0.698156	 13.9149	-14.7392	C.1
  2429	2	-0.396631	 14.3607	-15.5099	C.1
  2430	1	-14.7838	 8.56146	0.897056	N.3
  2431	2	-13.7526	 8.57254	 1.29382	C.1
  2432	2	-13.8205	 8.50489	0.358717	C.1
  2433	2	-15.2333	 9.47018	 1.33643	C.1
  2434	2	-15.3012	 9.40254	0.401329	C.1
  2435	2	-15.2637	 7.74312	 1.46357	C.1
  2436	2	-15.3316	 7.67548	0.528473	C.1
  2437	1	-2.76725	 6.74854	-3.50419	N.3
  2438	2	-1.93665	 6.53566	-2.80728	C.1
  2439	2	-1.74238	 6.39404	-3.71602	C.1
  2440	2	 -3.0591	 7.78131	-3.24137	C.1
  2441	2	-2.86484	 7.63968	 -4.1501	C.1
  2442	2	-3.59741	 6.14109	-3.10082	C.1
  2443	2	-3.40314	 5.99947	-4.00956	C.1
  2444	1	-1.15882	 3.08462	-9.68124	N.3
  2445	2	-0.166238	  3.1103	-9.19646	C.1
  2446	2	-0.153332	 3.14123	-10.1359	C.1
  2447	2	-1.70083	 3.91339	 -9.1911	C.1
  2448	2	-1.68792	 3.94432	-10.1305	C.1
  2449	2	-1.62876	 2.18379	-9.24705	C.1
  2450	2	-1.61586	 2.21472	-10.1865	C.1
  2451	1	 11.8385	 7.41362	 11.1582	N.3
  2452	2	 12.5221	 6.63341	  11.539	C.1
  2453	2	 12.5104	 6.73335	 10.6044	C.1
  2454	2	 12.1423	  8.3132	 11.7234	C.1
  2455	2	 12.1306	 8.41315	 10.7888	C.1
  2456	2	 10.8688	 7.14434	 11.6143	C.1
  2457	2	 10.8571	 7.24428	 10.6797	C.1
  2458	1	-12.1304	-5.91146	 14.2117	N.3
  2459	2	-11.2791	-5.64906	 14.8654	C.1
  2460	2	-11.1585	-5.45336	  13.954	C.1
  2461	2	-12.9847	-5.40196	 14.6928	C.1
  2462	2	-12.8641	-5.20625	 13.7813	C.1
  2463	2	-12.3083	-6.97691	 14.4441	C.1
  2464	2	-12.1877	-6.78121	 13.5326	C.1
  2465	1	-16.0061	-16.8884	-15.3704	N.3
  2466	2	-15.1532	-16.5439	-14.7582	C.1
  2467	2	-14.9671	-17.2627	-15.3347	C.1
  2468	2	-16.3497	-15.9637	 -15.868	C.1
  2469	2	-16.1636	-16.6825	-16.4445	C.1
  2470	2	-16.7946	-17.0796	-14.6204	C.1
  2471	2	-16.6084	-17.7983	-15.1968	C.1
  2472	1	  6.3333	 13.4858	 13.2051	N.3
  2473	2	 7.33076	  13.961	   13.19	C.1
  2474	2	 6.97638	 13.7482	 12.3458	C.1
  2475	2	 5.72784	 14.1886	 13.8055	C.1
  2476	2	 5.37347	 13.9758	 12.9612	C.1
  2477	2	 6.47288	 12.6271	 13.8863	C.1
  2478	2	  6.1185	 12.4143	  13.042	C.1
  2479	1	-8.34584	-19.4558	-8.05083	N.3
  2480	2	 -7.7428	-19.7265	-7.16541	C.1
  2481	2	-7.30287	-19.8158	 -7.9913	C.1
  2482	2	-8.69854	-18.4358	-7.81401	C.1
  2483	2	-8.25861	-18.5251	 -8.6399	C.1
  2484	2	-9.25608	-20.0712	-7.93424	C.1
  2485	2	-8.81615	-20.1605	-8.76013	C.1
  2486	1	 19.7013	-0.567954	 14.9244	N.3
  2487	2	 20.6851	-0.629986	 15.4237	C.1
  2488	2	 20.7143	-0.602905	 14.4845	C.1
  2489	2	 19.2287	0.307372	 15.4054	C.1
  2490	2	 19.2579	0.334453	 14.4662	C.1
  2491	2	 19.1463	-1.42187	  15.353	C.1
  2492	2	 19.1755	-1.39479	 14.4138	C.1
  2493	1	-5.75856	-8.76594	0.668885	N.3
  2494	2	-5.03278	-8.48676	 1.45387	C.1
  2495	2	-4.69078	-8.49658	0.578352	C.1
  2496	2	-6.59604	-8.06543	0.838504	C.1
  2497	2	-6.25404	-8.07525	-0.0370181	C.1
  2498	2	-6.15986	-9.73091	 1.02756	C.1
  2499	2	-5.81786	-9.74073	0.152037	C.1
  2500	1	 14.5166	 -2.3838	 15.4973	N.3
  2501	2	  15.418	-2.07559	 16.0571	C.1
  2502	2	 15.2026	-1.53641	 15.3178	C.1
  2503	2	 13.7394	-2.43947	 16.2807	C.1
  2504	2	  13.524	-1.90029	 15.5415	C.1
  2505	2	 14.7154	-3.44512	 15.2629	C.1
  2506	2	    14.5	-2.90593	 14.5236	C.1
  2507	1	 10.3923	 -19.252	-2.71256	N.3
  2508	2	 10.9514	-19.9849	-2.10325	C.1
  2509	2	 11.2747	-19.8621	 -2.9773	C.1
  2510	2	 10.3915	 -18.346	-2.08011	C.1
  2511	2	 10.7148	-18.2232	-2.95415	C.1
  2512	2	 9.34907	-19.6094	-2.64326	C.1
  2513	2	 9.67243	-19.4866	-3.51731	C.1
  2514	1	 3.82478	 19.7543	-10.1175	N.3
  2515	2	 4.90837	 19.5428	-10.0724	C.1
  2516	2	 4.53265	  19.523	-10.9338	C.1
  2517	2	 3.73338	 20.7192	-9.58701	C.1
  2518	2	 3.35766	 20.6993	-10.4484	C.1
  2519	2	 3.39617	 19.0305	-9.40104	C.1
  2520	2	 3.02045	 19.0107	-10.2625	C.1
  2521	1	 4.53615	 14.4839	 17.5901	N.3
  2522	2	 5.45069	 14.7255	 18.1612	C.1
  2523	2	 5.56028	  14.687	 17.2284	C.1
  2524	2	 3.80934	 15.2356	 17.9473	C.1
  2525	2	 3.91894	 15.1971	 17.0145	C.1
  2526	2	 4.18404	 13.5484	  18.061	C.1
  2527	2	 4.29363	 13.5099	 17.1282	C.1
  2528	1	 4.03226	-17.0736	 17.8469	N.3
  2529	2	 4.45263	-16.2936	 18.5071	C.1
  2530	2	 4.85242	-16.3574	 17.6588	C.1
  2531	2	 2.95147	 -16.844	 17.8411	C.1
  2532	2	 3.35127	-16.9078	 16.9927	C.1
  2533	2	   4.093	-17.9874	 18.4651	C.1
  2534	2	 4.49279	-18.0512	 17.6167	C.1
  2535	1	-18.3872	 7.55801	 -2.1845	N.3
  2536	2	-17.4666	 7.34354	-1.61237	C.1
  2537	2	-17.3941	 7.23231	-2.54295	C.1
  2538	2	-18.6594	 8.57617	-1.85266	C.1
  2539	2	-18.5869	 8.46493	-2.78323	C.1
  2540	2	-19.1444	 6.92118	-1.69261	C.1
  2541	2	-19.0719	 6.80994	-2.62319	C.1
  2542	1	-12.0207	-6.99209	 -6.1773	N.3
  2543	2	-11.0811	-6.41191	-6.13944	C.1
  2544	2	 -11.498	-6.44331	-6.98135	C.1
  2545	2	-12.6268	-6.54437	-5.36915	C.1
  2546	2	-13.0437	-6.57577	-6.21107	C.1
  2547	2	-11.7289	-7.97288	-5.76044	C.1
  2548	2	-12.1458	-8.00428	-6.60235	C.1
  2549	1	0.663303	 9.01986	-14.8354	N.3
  2550	2	  1.6049	 9.45862	-14.4589	C.1
  2551	2	 1.53959	 9.39473	-15.3944	C.1
  2552	2	-0.114522	  9.6373	-14.3511	C.1
  2553	2	-0.179826	 9.57341	-15.2866	C.1
  2554	2	0.597488	 8.05949	 -14.293	C.1
  2555	2	0.532185	  7.9956	-15.2286	C.1
  2556	1	 -13.689	-5.25413	 19.6645	N.3
  2557	2	-12.5876	-5.34284	 19.6605	C.1
  2558	2	-12.9885	 -5.3013	 18.8113	C.1
  2559	2	-13.8695	-4.37777	 20.3128	C.1
  2560	2	-14.2704	-4.33623	 19.4636	C.1
  2561	2	-14.0086	-6.10407	  20.294	C.1
  2562	2	-14.4095	-6.06253	 19.4448	C.1
  2563	1	-5.73519	 1.11116	 7.45981	N.3
  2564	2	-5.27598	 1.35408	 8.43501	C.1
  2565	2	-4.68312	 1.34273	 7.70563	C.1
  2566	2	-6.56247	 1.83942	 7.38176	C.1
  2567	2	-5.96962	 1.82807	 6.65238	C.1
  2568	2	 -6.2564	0.157001	 7.65673	C.1
  2569	2	-5.66355	0.145649	 6.92735	C.1
  2570	1	-0.602508	-11.4698	-13.1388	N.3
  2571	2	0.217206	-11.7968	-12.4739	C.1
  2572	2	0.473867	-11.5941	-13.3552	C.1
  2573	2	-1.06347	-10.6355	-12.5799	C.1
  2574	2	-0.806804	-10.4328	-13.4612	C.1
  2575	2	-1.34626	 -12.281	-13.0406	C.1
  2576	2	 -1.0896	-12.0783	-13.9219	C.1
  2577	1	-17.6824	 10.1194	 14.3017	N.3
  2578	2	-16.6792	 10.1589	 14.7633	C.1
  2579	2	-16.6859	 10.1176	 13.8242	C.1
  2580	2	-18.1955	 10.9956	 14.7373	C.1
  2581	2	-18.2022	 10.9544	 13.7982	C.1
  2582	2	-18.1623	 9.26562	 14.8131	C.1
  2583	2	 -18.169	 9.22435	  13.874	C.1
  2584	1	 -14.729	-16.1341	 10.4379	N.3
  2585	2	-13.6792	-16.4519	 10.5717	C.1
  2586	2	-13.9759	-16.4169	 9.68046	C.1
  2587	2	-14.7747	 -15.176	 10.9865	C.1
  2588	2	-15.0714	 -15.141	 10.0952	C.1
  2589	2	 -15.288	-16.8268	 11.0925	C.1
  2590	2	-15.5847	-16.7918	 10.2012	C.1
  2591	1	 15.8298	 2.32363	 12.7046	N.3
  2592	2	 16.7483	  2.6091	 13.2485	C.1
  2593	2	 16.8013	 2.67457	 12.3123	C.1
  2594	2	 15.0518	 2.95055	 13.1763	C.1
  2595	2	 15.1048	 3.01603	 12.2401	C.1
  2596	2	 15.6098	 1.31302	 13.0934	C.1
  2597	2	 15.6629	 1.37849	 12.1572	C.1
  2598	1	 10.8818	-10.5672	 9.74153	N.3
  2599	2	 11.8415	-10.6068	 10.2877	C.1
  2600	2	  11.914	-10.6189	 9.35057	C.1
  2601	2	 10.3879	-9.67329	 10.1633	C.1
  2602	2	 10.4604	-9.68535	 9.22615	C.1
  2603	2	 10.3073	-11.4033	 10.1793	C.1
  2604	2	 10.3798	-11.4154	 9.24219	C.1
  2605	1	 -19.263	 12.0544	 13.6882	N.3
  2606	2	-18.3244	 11.9635	 14.2643	C.1
  2607	2	 -18.227	 11.9138	 13.3307	C.1
  2608	2	-19.7007	 12.9961	 14.0656	C.1
  2609	2	-19.6033	 12.9464	  13.132	C.1
  2610	2	-19.9099	 11.2782	 14.1353	C.1
  2611	2	-19.8125	 11.2285	 13.2017	C.1
  2612	1	 -4.3438	 15.0632	-5.49312	N.3
  2613	2	-3.38336	 15.0396	-4.94731	C.1
  2614	2	-3.31036	 15.0633	-5.88417	C.1
  2615	2	-4.87031	 15.9229	-5.04079	C.1
  2616	2	-4.79731	 15.9466	-5.97765	C.1
  2617	2	-4.88722	 14.1916	-5.08598	C.1
  2618	2	-4.81422	 14.2153	-6.02284	C.1
  2619	1	 8.43245	 2.81939	 13.9312	N.3
  2620	2	 9.50287	 2.64216	 14.1403	C.1
  2621	2	 9.31451	 2.99286	 13.2888	C.1
  2622	2	 8.11001	 3.44846	 14.7805	C.1
  2623	2	 7.92165	 3.79915	 13.9289	C.1
  2624	2	 7.96702	 1.84151	 14.1503	C.1
  2625	2	 7.77866	 2.19221	 13.2988	C.1
  2626	1	-15.5342	-11.4473	 9.44191	N.3
  2627	2	-14.4629	  -11.53	 9.69961	C.1
  2628	2	 -14.666	-11.6524	    8.79	C.1
  2629	2	-15.8192	-10.4646	 9.85899	C.1
  2630	2	-16.0223	 -10.587	 8.94938	C.1
  2631	2	 -16.016	-12.1637	 10.1315	C.1
  2632	2	 -16.219	-12.2861	 9.22193	C.1
  2633	1	  17.338	 19.4974	 8.70121	N.3
  2634	2	 17.7996	 19.1976	 9.65931	C.1
  2635	2	 18.3579	 19.6862	 9.08203	C.1
  2636	2	 16.4166	 20.0192	 9.01706	C.1
  2637	2	 16.9749	 20.5077	 8.43978	C.1
  2638	2	 16.9602	 18.5426	 8.29319	C.1
  2639	2	 17.5185	 19.0311	 7.71591	C.1
  2640	1	 7.37407	 18.7172	-10.2231	N.3
  2641	2	 8.31082	 18.8941	-9.66445	C.1
  2642	2	 8.40353	 18.8576	-10.5992	C.1
  2643	2	 6.70264	 19.5105	  -9.848	C.1
  2644	2	 6.79535	 19.4741	-10.7827	C.1
  2645	2	 6.96967	 17.8018	-9.75485	C.1
  2646	2	 7.06238	 17.7653	-10.6896	C.1
  2647	1	-0.982203	-1.43751	 -7.8046	N.3
  2648	2	-0.503485	-2.08362	-7.04679	C.1
  2649	2	-0.0180741	-1.97581	 -7.8445	C.1
  2650	2	-1.18605	-0.50461	-7.24873	C.1
  2651	2	-0.700641	-0.396798	-8.04644	C.1
  2652	2	-1.98519	-1.88603	 -7.9217	C.1
  2653	2	-1.49978	-1.77822	-8.71942	C.1
  2654	1	 2.72308	-0.299934	 13.6816	N.3
  2655	2	 3.55588	-0.960408	 13.9835	C.1
  2656	2	 3.30758	-1.01808	 13.0787	C.1
  2657	2	 3.05948	0.698691	 14.0139	C.1
  2658	2	 2.81117	0.641019	 13.1092	C.1
  2659	2	 1.92633	-0.551579	 14.4046	C.1
  2660	2	 1.67802	-0.60925	 13.4998	C.1
  2661	1	 17.5923	-12.8585	-12.3014	N.3
  2662	2	 18.3501	-12.9664	-11.5045	C.1
  2663	2	  18.659	-12.5701	 -12.299	C.1
  2664	2	 16.7698	-12.3204	-11.7967	C.1
  2665	2	 17.0787	-11.9241	-12.5912	C.1
  2666	2	 17.1938	-13.8832	-12.4113	C.1
  2667	2	 17.5026	-13.4869	-13.2058	C.1
  2668	1	  15.724	 5.23335	-18.7881	N.3
  2669	2	 16.6494	 4.95759	-18.2509	C.1
  2670	2	 16.7055	 4.92162	-19.1885	C.1
  2671	2	 15.4752	 6.22533	-18.3698	C.1
  2672	2	 15.5314	 6.18936	-19.3075	C.1
  2673	2	 14.9632	 4.57107	 -18.337	C.1
  2674	2	 15.0193	  4.5351	-19.2747	C.1
  2675	1	-19.8349	-16.6083	-19.5116	N.3
  2676	2	-18.8598	-16.7236	-19.0047	C.1
  2677	2	-18.8314	-16.7753	-19.9429	C.1
  2678	2	-20.2199	-15.6559	-19.1047	C.1
  2679	2	-20.1915	-15.7075	-20.0429	C.1
  2680	2	-20.4675	-17.3679	 -19.018	C.1
  2681	2	-20.4391	-17.4195	-19.9562	C.1
  2682	1	-7.46486	 11.2116	-4.54884	N.3
  2683	2	-6.63419	 11.0847	-3.83138	C.1
  2684	2	-6.37899	 11.1274	-4.73507	C.1
  2685	2	-7.99415	 12.1033	-4.16722	C.1
  2686	2	-7.73895	 12.1461	 -5.0709	C.1
  2687	2	-8.14905	 10.3828	-4.29241	C.1
  2688	2	-7.89385	 10.4256	-5.19609	C.1
  2689	1	 19.3062	 18.6192	-2.09059	N.3
  2690	2	 20.3189	 18.6438	-1.64939	C.1
  2691	2	 20.2919	 18.6467	  -2.589	C.1
  2692	2	 18.7976	 19.4705	-1.60319	C.1
  2693	2	 18.7706	 19.4733	 -2.5428	C.1
  2694	2	 18.8425	 17.7391	-1.60978	C.1
  2695	2	 18.8155	 17.7419	-2.54939	C.1
  2696	1	  7.9398	 -19.379	  12.476	N.3
  2697	2	 9.01938	 -19.329	  12.246	C.1
  2698	2	 8.50086	-19.8116	 11.6281	C.1
  2699	2	 7.65815	-18.3176	 12.5984	C.1
  2700	2	 7.13963	-18.8002	 11.9805	C.1
  2701	2	 7.91965	-19.7666	 13.5105	C.1
  2702	2	 7.40113	-20.2492	 12.8926	C.1
  2703	1	 -18.588	-7.57289	 2.50517	N.3
  2704	2	-17.5126	-7.81337	 2.58673	C.1
  2705	2	 -17.847	-7.76924	 1.70934	C.1
  2706	2	-18.6838	-6.64163	 3.09206	C.1
  2707	2	-19.0182	 -6.5975	 2.21467	C.1
  2708	2	-19.0659	-8.32986	  3.1528	C.1
  2709	2	-19.4004	-8.28573	 2.27541	C.1
  2710	1	 7.49557	-7.56252	-14.8236	N.3
  2711	2	 8.37385	-8.16436	-14.5281	C.1
  2712	2	 8.47257	-7.67825	-15.3266	C.1
  2713	2	 7.29278	-6.95324	-13.9244	C.1
  2714	2	  7.3915	-6.46713	-14.7229	C.1
  2715	2	 6.67201	-8.29913	-14.8206	C.1
  2716	2	 6.77073	-7.81302	 -15.619	C.1
  2717	1	-10.5268	-4.13961	 13.0214	N.3
  2718	2	-9.50785	-3.78568	 13.2608	C.1
  2719	2	-9.72457	-3.79121	 12.3461	C.1
  2720	2	-11.1708	-3.50159	 13.6531	C.1
  2721	2	-11.3875	-3.50712	 12.7384	C.1
  2722	2	-10.5767	-5.12325	 13.5222	C.1
  2723	2	-10.7935	-5.12879	 12.6075	C.1
  2724	1	-0.301036	 3.96356	 19.3481	N.3
  2725	2	0.148094	 4.83639	 19.8554	C.1
  2726	2	0.613836	 4.53059	 19.0983	C.1
  2727	2	-1.34077	 4.28743	 19.1612	C.1
  2728	2	-0.875025	 3.98163	 18.4041	C.1
  2729	2	-0.409047	 3.22556	 20.1633	C.1
  2730	2	0.0566945	 2.91977	 19.4062	C.1
  2731	1	-16.5371	 16.8188	-12.0105	N.3
  2732	2	-15.5416	 17.2295	 -12.258	C.1
  2733	2	-16.0178	 16.8701	-12.9844	C.1
  2734	2	-17.0345	 17.6578	-11.4913	C.1
  2735	2	-17.5107	 17.2984	-12.2177	C.1
  2736	2	-16.3209	 16.1082	-11.1925	C.1
  2737	2	-16.7971	 15.7488	-11.9189	C.1
  2738	1	 12.5324	 18.5099	-15.7194	N.3
  2739	2	 13.5339	 18.5279	 -15.253	C.1
  2740	2	 13.5268	 18.6194	-16.1885	C.1
  2741	2	 11.9821	 19.2923	-15.1664	C.1
  2742	2	  11.975	 19.3839	-16.1019	C.1
  2743	2	 12.0918	 17.5721	-15.3356	C.1
  2744	2	 12.0847	 17.6637	-16.2711	C.1
  2745	1	-14.3744	-1.49715	-17.6774	N.3
  2746	2	-13.3644	-1.24076	-18.0448	C.1
  2747	2	-13.9661	-1.53719	-18.7033	C.1
  2748	2	-14.6841	-0.58657	-17.1335	C.1
  2749	2	-15.2858	-0.883003	 -17.792	C.1
  2750	2	-14.1723	-2.21948	 -16.866	C.1
  2751	2	 -14.774	-2.51591	-17.5246	C.1
  2752	1	 -8.6386	 15.6439	-4.83374	N.3
  2753	2	-7.81651	 14.9816	-4.50736	C.1
  2754	2	-7.55963	 15.6918	-5.06705	C.1
  2755	2	-9.11438	 15.9435	-3.88256	C.1
  2756	2	-8.85751	 16.6537	-4.44225	C.1
  2757	2	-9.37022	 14.9412	-5.27176	C.1
  2758	2	-9.11335	 15.6514	-5.83144	C.1
  2759	1	 15.4103	 -13.552	-8.62899	N.3
  2760	2	 16.3646	-13.3101	-8.12743	C.1
  2761	2	  16.345	-13.1418	-9.05202	C.1
  2762	2	  14.664	-12.9954	-8.03394	C.1
  2763	2	 14.6443	 -12.827	-8.95854	C.1
  2764	2	 15.2317	 -14.603	-8.33871	C.1
  2765	2	  15.212	-14.4347	-9.26331	C.1
  2766	1	0.821135	 15.5226	 8.93177	N.3
  2767	2	 1.85294	 15.7359	 9.26467	C.1
  2768	2	 1.76085	 15.5364	  8.3507	C.1
  2769	2	0.255917	 16.4061	 9.27931	C.1
  2770	2	0.163829	 16.2067	 8.36534	C.1
  2771	2	0.492685	  14.725	  9.6223	C.1
  2772	2	0.400596	 14.5256	 8.70833	C.1
  2773	1	-17.1747	 1.36935	 14.6453	N.3
  2774	2	-16.6776	0.728193	 15.3954	C.1
  2775	2	-16.2191	 0.81842	 14.5798	C.1
  2776	2	-17.3477	 2.31263	 15.1941	C.1
  2777	2	-16.8892	 2.40285	 14.3784	C.1
  2778	2	-18.1865	0.931885	 14.5698	C.1
  2779	2	 -17.728	 1.02211	 13.7542	C.1
  2780	1	-10.7691	 3.58537	-15.5988	N.3
  2781	2	-9.73739	 3.75969	-15.2438	C.1
  2782	2	-9.87428	 3.90588	-16.1622	C.1
  2783	2	-11.3776	 4.21677	-14.9265	C.1
  2784	2	-11.5145	 4.36296	-15.8449	C.1
  2785	2	 -10.987	 2.56038	-15.2484	C.1
  2786	2	-11.1239	 2.70657	-16.1668	C.1
  2787	1	-9.28593	 1.35648	 11.3556	N.3
  2788	2	-8.29586	 1.83957	 11.2703	C.1
  2789	2	-8.57721	 1.36706	  10.508	C.1
  2790	2	-9.94638	 2.18678	 11.6643	C.1
  2791	2	-10.2277	 1.71427	 10.9019	C.1
  2792	2	-9.19353	0.751842	 12.2758	C.1
  2793	2	-9.47488	 0.27933	 11.5135	C.1
  2794	1	 9.24175	 3.66021	  18.495	N.3
  2795	2	 10.1523	  3.5905	 19.1171	C.1
  2796	2	 10.3017	 3.78769	 18.2103	C.1
  2797	2	 8.61961	 4.39354	 19.0391	C.1
  2798	2	  8.7691	 4.59073	 18.1322	C.1
  2799	2	 8.72916	 2.70081	 18.6891	C.1
  2800	2	 8.87865	 2.89801	 17.7822	C.1
@<TRIPOS>BOND
       1	       1	       2	 1
       2	       1	       3	 1
       3	       1	       4	 1
       4	       1	       5	 1
       5	       1	       6	 1
       6	       1	       7	 1
       7	       8	       9	 1
       8	       8	      10	 1
       9	       8	      11	 1
      10	       8	      12	 1
      11	       8	      13	 1
      12	       8	      14	 1
      13	      15	      16	 1
      14	      15	      17	 1
      15	      15	      18	 1
      16	      15	      19	 1
      17	      15	      20	 1
      18	      15	      21	 1
      19	      22	      23	 1
      20	      22	      24	 1
      21	      22	      25	 1
      22	      22	      26	 1
      23	      22	      27	 1
      24	      22	      28	 1
      25	      29	      30	 1
      26	      29	      31	 1
      27	      29	      32	 1
      28	      29	      33	 1
      29	      29	      34	 1
      30	      29	      35	 1
      31	      36	      37	 1
      32	      36	      38	 1
      33	      36	      39	 1
      34	      36	      40	 1
      35	      36	      41	 1
      36	      36	      42	 1
      37	      43	      44	 1
      38	      43	      45	 1
      39	      43	      46	 1
      40	      43	      47	 1
      41	      43	      48	 1
      42	      43	      49	 1
      43	      50	      51	 1
      44	      50	      52	 1
      45	      50	      53	 1
      46	      50	      54	 1
      47	      50	      55	 1
      48	      50	      56	 1
      49	      57	      58	 1
      50	      57	      59	 1
      51	      57	      60	 1
      52	      57	      61	 1
      53	      57	      62	 1
      54	      57	      63	 1
      55	      64	      65	 1
      56	      64	      66	 1
      57	      64	      67	 1
      58	      64	      68	 1
      59	      64	      69	 1
      60	      64	      70	 1
      61	      71	      72	 1
      62	      71	      73	 1
      63	      71	      74	 1
      64	      71	      75	 1
      65	      71	      76	 1
      66	      71	      77	 1
      67	      78	      79	 1
      68	      78	      80	 1
      69	      78	      81	 1
      70	      78	      82	 1
      71	      78	      83	 1
      72	      78	      84	 1
      73	      85	      86	 1
      74	      85	      87	 1
      75	      85	      88	 1
      76	      85	      89	 1
      77	      85	      90	 1
      78	      85	      91	 1
      79	      92	      93	 1
      80	      92	      94	 1
      81	      92	      95	 1
      82	      92	      96	 1
      83	      92	      97	 1
      84	      92	      98	 1
      85	      99	     100	 1
      86	      99	     101	 1
      87	      99	     102	 1
      88	      99	     103	 1
      89	      99	     104	 1
      90	      99	     105	 1
      91	     106	     107	 1
      92	     106	     108	 1
      93	     106	     109	 1
      94	     106	     110	 1
      95	     106	     111	 1
      96	     106	     112	 1
      97	     113	     114	 1
      98	     113	     115	 1
      99	     113	     116	 1
     100	     113	     117	 1
     101	     113	     118	 1
     102	     113	     119	 1
     103	     120	     121	 1
     104	     120	     122	 1
     105	     120	     123	 1
     106	     120	     124	 1
     107	     120	     125	 1
     108	     120	     126	 1
     109	     127	     128	 1
     110	     127	     129	 1
     111	     127	     130	 1
     112	     127	     131	 1
     113	     127	     132	 1
     114	     127	     133	 1
     115	     134	     135	 1
     116	     134	     136	 1
     117	     134	     137	 1
     118	     134	     138	 1
     119	     134	     139	 1
     120	     134	     140	 1
     121	     141	     142	 1
     122	     141	     143	 1
     123	     141	     144	 1
     124	     141	     145	 1
     125	     141	     146	 1
     126	     141	     147	 1
     127	     148	     149	 1
     128	     148	     150	 1
     129	     148	     151	 1
     130	     148	     152	 1
     131	     148	     153	 1
     132	     148	     154	 1
     133	     155	     156	 1
     134	     155	     157	 1
     135	     155	     158	 1
     136	     155	     159	 1
     137	     155	     160	 1
     138	     155	     161	 1
     139	     162	     163	 1
     140	     162	     164	 1
     141	     162	     165	 1
     142	     162	     166	 1
     143	     162	     167	 1
     144	     162	     168	 1
     145	     169	     170	 1
     146	     169	     171	 1
     147	     169	     172	 1
     148	     169	     173	 1
     149	     169	     174	 1
     150	     169	     175	 1
     151	     176	     177	 1
     152	     176	     178	 1
     153	     176	     179	 1
     154	     176	     180	 1
     155	     176	     181	 1
     156	     176	     182	 1
     157	     183	     184	 1
     158	     183	     185	 1
     159	     183	     186	 1
     160	     183	     187	 1
     161	     183	     188	 1
     162	     183	     189	 1
     163	     190	     191	 1
     164	     190	     192	 1
     165	     190	     193	 1
     166	     190	     194	 1
     167	     190	     195	 1
     168	     190	     196	 1
     169	     197	     198	 1
     170	     197	     199	 1
     171	     197	     200	 1
     172	     197	     201	 1
     173	     197	     202	 1
     174	     197	     203	 1
     175	     204	     205	 1
     176	     204	     206	 1
     177	     204	     207	 1
     178	     204	     208	 1
     179	     204	     209	 1
     180	     204	     210	 1
     181	     211	     212	 1
     182	     211	     213	 1
     183	     211	     214	 1
     184	     211	     215	 1
     185	     211	     216	 1
     186	     211	     217	 1
     187	     218	     219	 1
     188	     218	     220	 1
     189	     218	     221	 1
     190	     218	     222	 1
     191	     218	     223	 1
     192	     218	     224	 1
     193	     225	     226	 1
     194	     225	     227	 1
     195	     225	     228	 1
     196	     225	     229	 1
     197	     225	     230	 1
     198	     225	     231	 1
     199	     232	     233	 1
     200	     232	     234	 1
     201	     232	     235	 1
     202	     232	     236	 1
     203	     232	     237	 1
     204	     232	     238	 1
     205	     239	     240	 1
     206	     239	     241	 1
     207	     239	     242	 1
     208	     239	     243	 1
     209	     239	     244	 1
     210	     239	     245	 1
     211	     246	     247	 1
     212	     246	     248	 1
     213	     246	     249	 1
     214	     246	     250	 1
     215	     246	     251	 1
     216	     246	     252	 1
     217	     253	     254	 1
     218	     253	     255	 1
     219	     253	     256	 1
     220	     253	     257	 1
     221	     253	     258	 1
     222	     253	     259	 1
     223	     260	     261	 1
     224	     260	     262	 1
     225	     260	     263	 1
     226	     260	     264	 1
     227	     260	     265	 1
     228	     260	     266	 1
     229	     267	     268	 1
     230	     267	     269	 1
     231	     267	     270	 1
     232	     267	     271	 1
     233	     267	     272	 1
     234	     267	     273	 1
     235	     274	     275	 1
     236	     274	     276	 1
     237	     274	     277	 1
     238	     274	     278	 1
     239	     274	     279	 1
     240	     274	     280	 1
     241	     281	     282	 1
     242	     281	     283	 1
     243	     281	     284	 1
     244	     281	     285	 1
     245	     281	     286	 1
     246	     281	     287	 1
     247	     288	     289	 1
     248	     288	     290	 1
     249	     288	     291	 1
     250	     288	     292	 1
     251	     288	     293	 1
     252	     288	     294	 1
     253	     295	     296	 1
     254	     295	     297	 1
     255	     295	     298	 1
     256	     295	     299	 1
     257	     295	     300	 1
     258	     295	     301	 1
     259	     302	     303	 1
     260	     302	     304	 1
     261	     302	     305	 1
     262	     302	     306	 1
     263	     302	     307	 1
     264	     302	     308	 1
     265	     309	     310	 1
     266	     309	     311	 1
     267	     309	     312	 1
     268	     309	     313	 1
     269	     309	     314	 1
     270	     309	     315	 1
     271	     316	     317	 1
     272	     316	     318	 1
     273	     316	     319	 1
     274	     316	     320	 1
     275	     316	     321	 1
     276	     316	     322	 1
     277	     323	     324	 1
     278	     323	     325	 1
     279	     323	     326	 1
     280	     323	     327	 1
     281	     323	     328	 1
     282	     323	     329	 1
     283	     330	     331	 1
     284	     330	     332	 1
     285	     330	     333	 1
     286	     330	     334	 1
     287	     330	     335	 1
     288	     330	     336	 1
     289	     337	     338	 1
     290	     337	     339	 1
     291	     337	     340	 1
     292	     337	     341	 1
     293	     337	     342	 1
     294	     337	     343	 1
     295	     344	     345	 1
     296	     344	     346	 1
     297	     344	     347	 1
     298	     344	     348	 1
     299	     344	     349	 1
     300	     344	     350	 1
     301	     351	     352	 1
     302	     351	     353	 1
     303	     351	     354	 1
     304	     351	     355	 1
     305	     351	     356	 1
     306	     351	     357	 1
     307	     358	     359	 1
     308	     358	     360	 1
     309	     358	     361	 1
     310	     358	     362	 1
     311	     358	     363	 1
     312	     358	     364	 1
     313	     365	     366	 1
     314	     365	     367	 1
     315	     365	     368	 1
     316	     365	     369	 1
     317	     365	     370	 1
     318	     365	     371	 1
     319	     372	     373	 1
     320	     372	     374	 1
     321	     372	     375	 1
     322	     372	     376	 1
     323	     372	     377	 1
     324	     372	     378	 1
     325	     379	     380	 1
     326	     379	     381	 1
     327	     379	     382	 1
     328	     379	     383	 1
     329	     379	     384	 1
     330	     379	     385	 1
     331	     386	     387	 1
     332	     386	     388	 1
     333	     386	     389	 1
     334	     386	     390	 1
     335	     386	     391	 1
     336	     386	     392	 1
     337	     393	     394	 1
     338	     393	     395	 1
     339	     393	     396	 1
     340	     393	     397	 1
     341	     393	     398	 1
     342	     393	     399	 1
     343	     400	     401	 1
     344	     400	     402	 1
     345	     400	     403	 1
     346	     400	     404	 1
     347	     400	     405	 1
     348	     400	     406	 1
     349	     407	     408	 1
     350	     407	     409	 1
     351	     407	     410	 1
     352	     407	     411	 1
     353	     407	     412	 1
     354	     407	     413	 1
     355	     414	     415	 1
     356	     414	     416	 1
     357	     414	     417	 1
     358	     414	     418	 1
     359	     414	     419	 1
     360	     414	     420	 1
     361	     421	     422	 1
     362	     421	     423	 1
     363	     421	     424	 1
     364	     421	     425	 1
     365	     421	     426	 1
     366	     421	     427	 1
     367	     428	     429	 1
     368	     428	     430	 1
     369	     428	     431	 1
     370	     428	     432	 1
     371	     428	     433	 1
     372	     428	     434	 1
     373	     435	     436	 1
     374	     435	     437	 1
     375	     435	     438	 1
     376	     435	     439	 1
     377	     435	     440	 1
     378	     435	     441	 1
     379	     442	     443	 1
     380	     442	     444	 1
     381	     442	     445	 1
     382	     442	     446	 1
     383	     442	     447	 1
     384	     442	     448	 1
     385	     449	     450	 1
     386	     449	     451	 1
     387	     449	     452	 1
     388	     449	     453	 1
     389	     449	     454	 1
     390	     449	     455	 1
     391	     456	     457	 1
     392	     456	     458	 1
     393	     456	     459	 1
     394	     456	     460	 1
     395	     456	     461	 1
     396	     456	     462	 1
     397	     463	     464	 1
     398	     463	     465	 1
     399	     463	     466	 1
     400	     463	     467	 1
     401	     463	     468	 1
     402	     463	     469	 1
     403	     470	     471	 1
     404	     470	     472	 1
     405	     470	     473	 1
     406	     470	     474	 1
     407	     470	     475	 1
     408	     470	     476	 1
     409	     477	     478	 1
     410	     477	     479	 1
     411	     477	     480	 1
     412	     477	     481	 1
     413	     477	     482	 1
     414	     477	     483	 1
     415	     484	     485	 1
     416	     484	     486	 1
     417	     484	     487	 1
     418	     484	     488	 1
     419	     484	     489	 1
     420	     484	     490	 1
     421	     491	     492	 1
     422	     491	     493	 1
     423	     491	     494	 1
     424	     491	     495	 1
     425	     491	     496	 1
     426	     491	     497	 1
     427	     498	     499	 1
     428	     498	     500	 1
     429	     498	     501	 1
     430	     498	     502	 1
     431	     498	     503	 1
     432	     498	     504	 1
     433	     505	     506	 1
     434	     505	     507	 1
     435	     505	     508	 1
     436	     505	     509	 1
     437	     505	     510	 1
     438	     505	     511	 1
     439	     512	     513	 1
     440	     512	     514	 1
     441	     512	     515	 1
     442	     512	     516	 1
     443	     512	     517	 1
     444	     512	     518	 1
     445	     519	     520	 1
     446	     519	     521	 1
     447	     519	     522	 1
     448	     519	     523	 1
     449	     519	     524	 1
     450	     519	     525	 1
     451	     526	     527	 1
     452	     526	     528	 1
     453	     526	     529	 1
     454	     526	     530	 1
     455	     526	     531	 1
     456	     526	     532	 1
     457	     533	     534	 1
     458	     533	     535	 1
     459	     533	     536	 1
     460	     533	     537	 1
     461	     533	     538	 1
     462	     533	     539	 1
     463	     540	     541	 1
     464	     540	     542	 1
     465	     540	     543	 1
     466	     540	     544	 1
     467	     540	     545	 1
     468	     540	     546	 1
     469	     547	     548	 1
     470	     547	     549	 1
     471	     547	     550	 1
     472	     547	     551	 1
     473	     547	     552	 1
     474	     547	     553	 1
     475	     554	     555	 1
     476	     554	     556	 1
     477	     554	     557	 1
     478	     554	     558	 1
     479	     554	     559	 1
     480	     554	     560	 1
     481	     561	     562	 1
     482	     561	     563	 1
     483	     561	     564	 1
     484	     561	     565	 1
     485	     561	     566	 1
     486	     561	     567	 1
     487	     568	     569	 1
     488	     568	     570	 1
     489	     568	     571	 1
     490	     568	     572	 1
     491	     568	     573	 1
     492	     568	     574	 1
     493	     575	     576	 1
     494	     575	     577	 1
     495	     575	     578	 1
     496	     575	     579	 1
     497	     575	     580	 1
     498	     575	     581	 1
     499	     582	     583	 1
     500	     582	     584	 1
     501	     582	     585	 1
     502	     582	     586	 1
     503	     582	     587	 1
     504	     582	     588	 1
     505	     589	     590	 1
     506	     589	     591	 1
     507	     589	     592	 1
     508	     589	     593	 1
     509	     589	     594	 1
     510	     589	     595	 1
     511	     596	     597	 1
     512	     596	     598	 1
     513	     596	     599	 1
     514	     596	     600	 1
     515	     596	     601	 1
     516	     596	     602	 1
     517	     603	     604	 1
     518	     603	     605	 1
     519	     603	     606	 1
     520	     603	     607	 1
     521	     603	     608	 1
     522	     603	     609	 1
     523	     610	     611	 1
     524	     610	     612	 1
     525	     610	     613	 1
     526	     610	     614	 1
     527	     610	     615	 1
     528	     610	     616	 1
     529	     617	     618	 1
     530	     617	     619	 1
     531	     617	     620	 1
     532	     617	     621	 1
     533	     617	     622	 1
     534	     617	     623	 1
     535	     624	     625	 1
     536	     624	     626	 1
     537	     624	     627	 1
     538	     624	     628	 1
     539	     624	     629	 1
     540	     624	     630	 1
     541	     631	     632	 1
     542	     631	     633	 1
     543	     631	     634	 1
     544	     631	     635	 1
     545	     631	     636	 1
     546	     631	     637	 1
     547	     638	     639	 1
     548	     638	     640	 1
     549	     638	     641	 1
     550	     638	     642	 1
     551	     638	     643	 1
     552	     638	     644	 1
     553	     645	     646	 1
     554	     645	     647	 1
     555	     645	     648	 1
     556	     645	     649	 1
     557	     645	     650	 1
     558	     645	     651	 1
     559	     652	     653	 1
     560	     652	     654	 1
     561	     652	     655	 1
     562	     652	     656	 1
     563	     652	     657	 1
     564	     652	     658	 1
     565	     659	     660	 1
     566	     659	     661	 1
     567	     659	     662	 1
     568	     659	     663	 1
     569	     659	     664	 1
     570	     659	     665	 1
     571	     666	     667	 1
     572	     666	     668	 1
     573	     666	     669	 1
     574	     666	     670	 1
     575	     666	     671	 1
     576	     666	     672	 1
     577	     673	     674	 1
     578	     673	     675	 1
     579	     673	     676	 1
     580	     673	     677	 1
     581	     673	     678	 1
     582	     673	     679	 1
     583	     680	     681	 1
     584	     680	     682	 1
     585	     680	     683	 1
     586	     680	     684	 1
     587	     680	     685	 1
     588	     680	     686	 1
     589	     687	     688	 1
     590	     687	     689	 1
     591	     687	     690	 1
     592	     687	     691	 1
     593	     687	     692	 1
     594	     687	     693	 1
     595	     694	     695	 1
     596	     694	     696	 1
     597	     694	     697	 1
     598	     694	     698	 1
     599	     694	     699	 1
     600	     694	     700	 1
     601	     701	     702	 1
     602	     701	     703	 1
     603	     701	     704	 1
     604	     701	     705	 1
     605	     701	     706	 1
     606	     701	     707	 1
     607	     708	     709	 1
     608	     708	     710	 1
     609	     708	     711	 1
     610	     708	     712	 1
     611	     708	     713	 1
     612	     708	     714	 1
     613	     715	     716	 1
     614	     715	     717	 1
     615	     715	     718	 1
     616	     715	     719	 1
     617	     715	     720	 1
     618	     715	     721	 1
     619	     722	     723	 1
     620	     722	     724	 1
     621	     722	     725	 1
     622	     722	     726	 1
     623	     722	     727	 1
     624	     722	     728	 1
     625	     729	     730	 1
     626	     729	     731	 1
     627	     729	     732	 1
     628	     729	     733	 1
     629	     729	     734	 1
     630	     729	     735	 1
     631	     736	     737	 1
     632	     736	     738	 1
     633	     736	     739	 1
     634	     736	     740	 1
     635	     736	     741	 1
     636	     736	     742	 1
     637	     743	     744	 1
     638	     743	     745	 1
     639	     743	     746	 1
     640	     743	     747	 1
     641	     743	     748	 1
     642	     743	     749	 1
     643	     750	     751	 1
     644	     750	     752	 1
     645	     750	     753	 1
     646	     750	     754	 1
     647	     750	     755	 1
     648	     750	     756	 1
     649	     757	     758	 1
     650	     757	     759	 1
     651	     757	     760	 1
     652	     757	     761	 1
     653	     757	     762	 1
     654	     757	     763	 1
     655	     764	     765	 1
     656	     764	     766	 1
     657	     764	     767	 1
     658	     764	     768	 1
     659	     764	     769	 1
     660	     764	     770	 1
     661	     771	     772	 1
     662	     771	     773	 1
     663	     771	     774	 1
     664	     771	     775	 1
     665	     771	     776	 1
     666	     771	     777	 1
     667	     778	     779	 1
     668	     778	     780	 1
     669	     778	     781	 1
     670	     778	     782	 1
     671	     778	     783	 1
     672	     778	     784	 1
     673	     785	     786	 1
     674	     785	     787	 1
     675	     785	     788	 1
     676	     785	     789	 1
     677	     785	     790	 1
     678	     785	     791	 1
     679	     792	     793	 1
     680	     792	     794	 1
     681	     792	     795	 1
     682	     792	     796	 1
     683	     792	     797	 1
     684	     792	     798	 1
     685	     799	     800	 1
     686	     799	     801	 1
     687	     799	     802	 1
     688	     799	     803	 1
     689	     799	     804	 1
     690	     799	     805	 1
     691	     806	     807	 1
     692	     806	     808	 1
     693	     806	     809	 1
     694	     806	     810	 1
     695	     806	     811	 1
     696	     806	     812	 1
     697	     813	     814	 1
     698	     813	     815	 1
     699	     813	     816	 1
     700	     813	     817	 1
     701	     813	     818	 1
     702	     813	     819	 1
     703	     820	     821	 1
     704	     820	     822	 1
     705	     820	     823	 1
     706	     820	     824	 1
     707	     820	     825	 1
     708	     820	     826	 1
     709	     827	     828	 1
     710	     827	     829	 1
     711	     827	     830	 1
     712	     827	     831	 1
     713	     827	     832	 1
     714	     827	     833	 1
     715	     834	     835	 1
     716	     834	     836	 1
     717	     834	     837	 1
     718	     834	     838	 1
     719	     834	     839	 1
     720	     834	     840	 1
     721	     841	     842	 1
     722	     841	     843	 1
     723	     841	     844	 1
     724	     841	     845	 1
     725	     841	     846	 1
     726	     841	     847	 1
     727	     848	     849	 1
     728	     848	     850	 1
     729	     848	     851	 1
     730	     848	     852	 1
     731	     848	     853	 1
     732	     848	     854	 1
     733	     855	     856	 1
     734	     855	     857	 1
     735	     855	     858	 1
     736	     855	     859	 1
     737	     855	     860	 1
     738	     855	     861	 1
     739	     862	     863	 1
     740	     862	     864	 1
     741	     862	     865	 1
     742	     862	     866	 1
     743	     862	     867	 1
     744	     862	     868	 1
     745	     869	     870	 1
     746	     869	     871	 1
     747	     869	     872	 1
     748	     869	     873	 1
     749	     869	     874	 1
     750	     869	     875	 1
     751	     876	     877	 1
     752	     876	     878	 1
     753	     876	     879	 1
     754	     876	     880	 1
     755	     876	     881	 1
     756	     876	     882	 1
     757	     883	     884	 1
     758	     883	     885	 1
     759	     883	     886	 1
     760	     883	     887	 1
     761	     883	     888	 1
     762	     883	     889	 1
     763	     890	     891	 1
     764	     890	     892	 1
     765	     890	     893	 1
     766	     890	     894	 1
     767	     890	     895	 1
     768	     890	     896	 1
     769	     897	     898	 1
     770	     897	     899	 1
     771	     897	     900	 1
     772	     897	     901	 1
     773	     897	     902	 1
     774	     897	     903	 1
     775	     904	     905	 1
     776	     904	     906	 1
     777	     904	     907	 1
     778	     904	     908	 1
     779	     904	     909	 1
     780	     904	     910	 1
     781	     911	     912	 1
     782	     911	     913	 1
     783	     911	     914	 1
     784	     911	     915	 1
     785	     911	     916	 1
     786	     911	     917	 1
     787	     918	     919	 1
     788	     918	     920	 1
     789	     918	     921	 1
     790	     918	     922	 1
     791	     918	     923	 1
     792	     918	     924	 1
     793	     925	     926	 1
     794	     925	     927	 1
     795	     925	     928	 1
     796	     925	     929	 1
     797	     925	     930	 1
     798	     925	     931	 1
     799	     932	     933	 1
     800	     932	     934	 1
     801	     932	     935	 1
     802	     932	     936	 1
     803	     932	     937	 1
     804	     932	     938	 1
     805	     939	     940	 1
     806	     939	     941	 1
     807	     939	     942	 1
     808	     939	     943	 1
     809	     939	     944	 1
     810	     939	     945	 1
     811	     946	     947	 1
     812	     946	     948	 1
     813	     946	     949	 1
     814	     946	     950	 1
     815	     946	     951	 1
     816	     946	     952	 1
     817	     953	     954	 1
     818	     953	     955	 1
     819	     953	     956	 1
     820	     953	     957	 1
     821	     953	     958	 1
     822	     953	     959	 1
     823	     960	     961	 1
     824	     960	     962	 1
     825	     960	     963	 1
     826	     960	     964	 1
     827	     960	     965	 1
     828	     960	     966	 1
     829	     967	     968	 1
     830	     967	     969	 1
     831	     967	     970	 1
     832	     967	     971	 1
     833	     967	     972	 1
     834	     967	     973	 1
     835	     974	     975	 1
     836	     974	     976	 1
     837	     974	     977	 1
     838	     974	     978	 1
     839	     974	     979	 1
     840	     974	     980	 1
     841	     981	     982	 1
     842	     981	     983	 1
     843	     981	     984	 1
     844	     981	     985	 1
     845	     981	     986	 1
     846	     981	     987	 1
     847	     988	     989	 1
     848	     988	     990	 1
     849	     988	     991	 1
     850	     988	     992	 1
     851	     988	     993	 1
     852	     988	     994	 1
     853	     995	     996	 1
     854	     995	     997	 1
     855	     995	     998	 1
     856	     995	     999	 1
     857	     995	    1000	 1
     858	     995	    1001	 1
     859	    1002	    1003	 1
     860	    1002	    1004	 1
     861	    1002	    1005	 1
     862	    1002	    1006	 1
     863	    1002	    1007	 1
     864	    1002	    1008	 1
     865	    1009	    1010	 1
     866	    1009	    1011	 1
     867	    1009	    1012	 1
     868	    1009	    1013	 1
     869	    1009	    1014	 1
     870	    1009	    1015	 1
     871	    1016	    1017	 1
     872	    1016	    1018	 1
     873	    1016	    1019	 1
     874	    1016	    1020	 1
     875	    1016	    1021	 1
     876	    1016	    1022	 1
     877	    1023	    1024	 1
     878	    1023	    1025	 1
     879	    1023	    1026	 1
     880	    1023	    1027	 1
     881	    1023	    1028	 1
     882	    1023	    1029	 1
     883	    1030	    1031	 1
     884	    1030	    1032	 1
     885	    1030	    1033	 1
     886	    1030	    1034	 1
     887	    1030	    1035	 1
     888	    1030	    1036	 1
     889	    1037	    1038	 1
     890	    1037	    1039	 1
     891	    1037	    1040	 1
     892	    1037	    1041	 1
     893	    1037	    1042	 1
     894	    1037	    1043	 1
     895	    1044	    1045	 1
     896	    1044	    1046	 1
     897	    1044	    1047	 1
     898	    1044	    1048	 1
     899	    1044	    1049	 1
     900	    1044	    1050	 1
     901	    1051	    1052	 1
     902	    1051	    1053	 1
     903	    1051	    1054	 1
     904	    1051	    1055	 1
     905	    1051	    1056	 1
     906	    1051	    1057	 1
     907	    1058	    1059	 1
     908	    1058	    1060	 1
     909	    1058	    1061	 1
     910	    1058	    1062	 1
     911	    1058	    1063	 1
     912	    1058	    1064	 1
     913	    1065	    1066	 1
     914	    1065	    1067	 1
     915	    1065	    1068	 1
     916	    1065	    1069	 1
     917	    1065	    1070	 1
     918	    1065	    1071	 1
     919	    1072	    1073	 1
     920	    1072	    1074	 1
     921	    1072	    1075	 1
     922	    1072	    1076	 1
     923	    1072	    1077	 1
     924	    1072	    1078	 1
     925	    1079	    1080	 1
     926	    1079	    1081	 1
     927	    1079	    1082	 1
     928	    1079	    1083	 1
     929	    1079	    1084	 1
     930	    1079	    1085	 1
     931	    1086	    1087	 1
     932	    1086	    1088	 1
     933	    1086	    1089	 1
     934	    1086	    1090	 1
     935	    1086	    1091	 1
     936	    1086	    1092	 1
     937	    1093	    1094	 1
     938	    1093	    1095	 1
     939	    1093	    1096	 1
     940	    1093	    1097	 1
     941	    1093	    1098	 1
     942	    1093	    1099	 1
     943	    1100	    1101	 1
     944	    1100	    1102	 1
     945	    1100	    1103	 1
     946	    1100	    1104	 1
     947	    1100	    1105	 1
     948	    1100	    1106	 1
     949	    1107	    1108	 1
     950	    1107	    1109	 1
     951	    1107	    1110	 1
     952	    1107	    1111	 1
     953	    1107	    1112	 1
     954	    1107	    1113	 1
     955	    1114	    1115	 1
     956	    1114	    1116	 1
     957	    1114	    1117	 1
     958	    1114	    1118	 1
     959	    1114	    1119	 1
     960	    1114	    1120	 1
     961	    1121	    1122	 1
     962	    1121	    1123	 1
     963	    1121	    1124	 1
     964	    1121	    1125	 1
     965	    1121	    1126	 1
     966	    1121	    1127	 1
     967	    1128	    1129	 1
     968	    1128	    1130	 1
     969	    1128	    1131	 1
     970	    1128	    1132	 1
     971	    1128	    1133	 1
     972	    1128	    1134	 1
     973	    1135	    1136	 1
     974	    1135	    1137	 1
     975	    1135	    1138	 1
     976	    1135	    1139	 1
     977	    1135	    1140	 1
     978	    1135	    1141	 1
     979	    1142	    1143	 1
     980	    1142	    1144	 1
     981	    1142	    1145	 1
     982	    1142	    1146	 1
     983	    1142	    1147	 1
     984	    1142	    1148	 1
     985	    1149	    1150	 1
     986	    1149	    1151	 1
     987	    1149	    1152	 1
     988	    1149	    1153	 1
     989	    1149	    1154	 1
     990	    1149	    1155	 1
     991	    1156	    1157	 1
     992	    1156	    1158	 1
     993	    1156	    1159	 1
     994	    1156	    1160	 1
     995	    1156	    1161	 1
     996	    1156	    1162	 1
     997	    1163	    1164	 1
     998	    1163	    1165	 1
     999	    1163	    1166	 1
    1000	    1163	    1167	 1
    1001	    1163	    1168	 1
    1002	    1163	    1169	 1
    1003	    1170	    1171	 1
    1004	    1170	    1172	 1
    1005	    1170	    1173	 1
    1006	    1170	    1174	 1
    1007	    1170	    1175	 1
    1008	    1170	    1176	 1
    1009	    1177	    1178	 1
    1010	    1177	    1179	 1
    1011	    1177	    1180	 1
    1012	    1177	    1181	 1
    1013	    1177	    1182	 1
    1014	    1177	    1183	 1
    1015	    1184	    1185	 1
    1016	    1184	    1186	 1
    1017	    1184	    1187	 1
    1018	    1184	    1188	 1
    1019	    1184	    1189	 1
    1020	    1184	    1190	 1
    1021	    1191	    1192	 1
    1022	    1191	    1193	 1
    1023	    1191	    1194	 1
    1024	    1191	    1195	 1
    1025	    1191	    1196	 1
    1026	    1191	    1197	 1
    1027	    1198	    1199	 1
    1028	    1198	    1200	 1
    1029	    1198	    1201	 1
    1030	    1198	    1202	 1
    1031	    1198	    1203	 1
    1032	    1198	    1204	 1
    1033	    1205	    1206	 1
    1034	    1205	    1207	 1
    1035	    1205	    1208	 1
    1036	    1205	    1209	 1
    1037	    1205	    1210	 1
    1038	    1205	    1211	 1
    1039	    1212	    1213	 1
    1040	    1212	    1214	 1
    1041	    1212	    1215	 1
    1042	    1212	    1216	 1
    1043	    1212	    1217	 1
    1044	    1212	    1218	 1
    1045	    1219	    1220	 1
    1046	    1219	    1221	 1
    1047	    1219	    1222	 1
    1048	    1219	    1223	 1
    1049	    1219	    1224	 1
    1050	    1219	    1225	 1
    1051	    1226	    1227	 1
    1052	    1226	    1228	 1
    1053	    1226	    1229	 1
    1054	    1226	    1230	 1
    1055	    1226	    1231	 1
    1056	    1226	    1232	 1
    1057	    1233	    1234	 1
    1058	    1233	    1235	 1
    1059	    1233	    1236	 1
    1060	    1233	    1237	 1
    1061	    1233	    1238	 1
    1062	    1233	    1239	 1
    1063	    1240	    1241	 1
    1064	    1240	    1242	 1
    1065	    1240	    1243	 1
    1066	    1240	    1244	 1
    1067	    1240	    1245	 1
    1068	    1240	    1246	 1
    1069	    1247	    1248	 1
    1070	    1247	    1249	 1
    1071	    1247	    1250	 1
    1072	    1247	    1251	 1
    1073	    1247	    1252	 1
    1074	    1247	    1253	 1
    1075	    1254	    1255	 1
    1076	    1254	    1256	 1
    1077	    1254	    1257	 1
    1078	    1254	    1258	 1
    1079	    1254	    1259	 1
    1080	    1254	    1260	 1
    1081	    1261	    1262	 1
    1082	    1261	    1263	 1
    1083	    1261	    1264	 1
    1084	    1261	    1265	 1
    1085	    1261	    1266	 1
    1086	    1261	    1267	 1
    1087	    1268	    1269	 1
    1088	    1268	    1270	 1
    1089	    1268	    1271	 1
    1090	    1268	    1272	 1
    1091	    1268	    1273	 1
    1092	    1268	    1274	 1
    1093	    1275	    1276	 1
    1094	    1275	    1277	 1
    1095	    1275	    1278	 1
    1096	    1275	    1279	 1
    1097	    1275	    1280	 1
    1098	    1275	    1281	 1
    1099	    1282	    1283	 1
    1100	    1282	    1284	 1
    1101	    1282	    1285	 1
    1102	    1282	    1286	 1
    1103	    1282	    1287	 1
    1104	    1282	    1288	 1
    1105	    1289	    1290	 1
    1106	    1289	    1291	 1
    1107	    1289	    1292	 1
    1108	    1289	    1293	 1
    1109	    1289	    1294	 1
    1110	    1289	    1295	 1
    1111	    1296	    1297	 1
    1112	    1296	    1298	 1
    1113	    1296	    1299	 1
    1114	    1296	    1300	 1
    1115	    1296	    1301	 1
    1116	    1296	    1302	 1
    1117	    1303	    1304	 1
    1118	    1303	    1305	 1
    1119	    1303	    1306	 1
    1120	    1303	    1307	 1
    1121	    1303	    1308	 1
    1122	    1303	    1309	 1
    1123	    1310	    1311	 1
    1124	    1310	    1312	 1
    1125	    1310	    1313	 1
    1126	    1310	    1314	 1
    1127	    1310	    1315	 1
    1128	    1310	    1316	 1
    1129	    1317	    1318	 1
    1130	    1317	    1319	 1
    1131	    1317	    1320	 1
    1132	    1317	    1321	 1
    1133	    1317	    1322	 1
    1134	    1317	    1323	 1
    1135	    1324	    1325	 1
    1136	    1324	    1326	 1
    1137	    1324	    1327	 1
    1138	    1324	    1328	 1
    1139	    1324	    1329	 1
    1140	    1324	    1330	 1
    1141	    1331	    1332	 1
    1142	    1331	    1333	 1
    1143	    1331	    1334	 1
    1144	    1331	    1335	 1
    1145	    1331	    1336	 1
    1146	    1331	    1337	 1
    1147	    1338	    1339	 1
    1148	    1338	    1340	 1
    1149	    1338	    1341	 1
    1150	    1338	    1342	 1
    1151	    1338	    1343	 1
    1152	    1338	    1344	 1
    1153	    1345	    1346	 1
    1154	    1345	    1347	 1
    1155	    1345	    1348	 1
    1156	    1345	    1349	 1
    1157	    1345	    1350	 1
    1158	    1345	    1351	 1
    1159	    1352	    1353	 1
    1160	    1352	    1354	 1
    1161	    1352	    1355	 1
    1162	    1352	    1356	 1
    1163	    1352	    1357	 1
    1164	    1352	    1358	 1
    1165	    1359	    1360	 1
    1166	    1359	    1361	 1
    1167	    1359	    1362	 1
    1168	    1359	    1363	 1
    1169	    1359	    1364	 1
    1170	    1359	    1365	 1
    1171	    1366	    1367	 1
    1172	    1366	    1368	 1
    1173	    1366	    1369	 1
    1174	    1366	    1370	 1
    1175	    1366	    1371	 1
    1176	    1366	    1372	 1
    1177	    1373	    1374	 1
    1178	    1373	    1375	 1
    1179	    1373	    1376	 1
    1180	    1373	    1377	 1
    1181	    1373	    1378	 1
    1182	    1373	    1379	 1
    1183	    1380	    1381	 1
    1184	    1380	    1382	 1
    1185	    1380	    1383	 1
    1186	    1380	    1384	 1
    1187	    1380	    1385	 1
    1188	    1380	    1386	 1
    1189	    1387	    1388	 1
    1190	    1387	    1389	 1
    1191	    1387	    1390	 1
    1192	    1387	    1391	 1
    1193	    1387	    1392	 1
    1194	    1387	    1393	 1
    1195	    1394	    1395	 1
    1196	    1394	    1396	 1
    1197	    1394	    1397	 1
    1198	    1394	    1398	 1
    1199	    1394	    1399	 1
    1200	    1394	    1400	 1
    1201	    1401	    1402	 1
    1202	    1401	    1403	 1
    1203	    1401	    1404	 1
    1204	    1401	    1405	 1
    1205	    1401	    1406	 1
    1206	    1401	    1407	 1
    1207	    1408	    1409	 1
    1208	    1408	    1410	 1
    1209	    1408	    1411	 1
    1210	    1408	    1412	 1
    1211	    1408	    1413	 1
    1212	    1408	    1414	 1
    1213	    1415	    1416	 1
    1214	    1415	    1417	 1
    1215	    1415	    1418	 1
    1216	    1415	    1419	 1
    1217	    1415	    1420	 1
    1218	    1415	    1421	 1
    1219	    1422	    1423	 1
    1220	    1422	    1424	 1
    1221	    1422	    1425	 1
    1222	    1422	    1426	 1
    1223	    1422	    1427	 1
    1224	    1422	    1428	 1
    1225	    1429	    1430	 1
    1226	    1429	    1431	 1
    1227	    1429	    1432	 1
    1228	    1429	    1433	 1
    1229	    1429	    1434	 1
    1230	    1429	    1435	 1
    1231	    1436	    1437	 1
    1232	    1436	    1438	 1
    1233	    1436	    1439	 1
    1234	    1436	    1440	 1
    1235	    1436	    1441	 1
    1236	    1436	    1442	 1
    1237	    1443	    1444	 1
    1238	    1443	    1445	 1
    1239	    1443	    1446	 1
    1240	    1443	    1447	 1
    1241	    1443	    1448	 1
    1242	    1443	    1449	 1
    1243	    1450	    1451	 1
    1244	    1450	    1452	 1
    1245	    1450	    1453	 1
    1246	    1450	    1454	 1
    1247	    1450	    1455	 1
    1248	    1450	    1456	 1
    1249	    1457	    1458	 1
    1250	    1457	    1459	 1
    1251	    1457	    1460	 1
    1252	    1457	    1461	 1
    1253	    1457	    1462	 1
    1254	    1457	    1463	 1
    1255	    1464	    1465	 1
    1256	    1464	    1466	 1
    1257	    1464	    1467	 1
    1258	    1464	    1468	 1
    1259	    1464	    1469	 1
    1260	    1464	    1470	 1
    1261	    1471	    1472	 1
    1262	    1471	    1473	 1
    1263	    1471	    1474	 1
    1264	    1471	    1475	 1
    1265	    1471	    1476	 1
    1266	    1471	    1477	 1
    1267	    1478	    1479	 1
    1268	    1478	    1480	 1
    1269	    1478	    1481	 1
    1270	    1478	    1482	 1
    1271	    1478	    1483	 1
    1272	    1478	    1484	 1
    1273	    1485	    1486	 1
    1274	    1485	    1487	 1
    1275	    1485	    1488	 1
    1276	    1485	    1489	 1
    1277	    1485	    1490	 1
    1278	    1485	    1491	 1
    1279	    1492	    1493	 1
    1280	    1492	    1494	 1
    1281	    1492	    1495	 1
    1282	    1492	    1496	 1
    1283	    1492	    1497	 1
    1284	    1492	    1498	 1
    1285	    1499	    1500	 1
    1286	    1499	    1501	 1
    1287	    1499	    1502	 1
    1288	    1499	    1503	 1
    1289	    1499	    1504	 1
    1290	    1499	    1505	 1
    1291	    1506	    1507	 1
    1292	    1506	    1508	 1
    1293	    1506	    1509	 1
    1294	    1506	    1510	 1
    1295	    1506	    1511	 1
    1296	    1506	    1512	 1
    1297	    1513	    1514	 1
    1298	    1513	    1515	 1
    1299	    1513	    1516	 1
    1300	    1513	    1517	 1
    1301	    1513	    1518	 1
    1302	    1513	    1519	 1
    1303	    1520	    1521	 1
    1304	    1520	    1522	 1
    1305	    1520	    1523	 1
    1306	    1520	    1524	 1
    1307	    1520	    1525	 1
    1308	    1520	    1526	 1
    1309	    1527	    1528	 1
    1310	    1527	    1529	 1
    1311	    1527	    1530	 1
    1312	    1527	    1531	 1
    1313	    1527	    1532	 1
    1314	    1527	    1533	 1
    1315	    1534	    1535	 1
    1316	    1534	    1536	 1
    1317	    1534	    1537	 1
    1318	    1534	    1538	 1
    1319	    1534	    1539	 1
    1320	    1534	    1540	 1
    1321	    1541	    1542	 1
    1322	    1541	    1543	 1
    1323	    1541	    1544	 1
    1324	    1541	    1545	 1
    1325	    1541	    1546	 1
    1326	    1541	    1547	 1
    1327	    1548	    1549	 1
    1328	    1548	    1550	 1
    1329	    1548	    1551	 1
    1330	    1548	    1552	 1
    1331	    1548	    1553	 1
    1332	    1548	    1554	 1
    1333	    1555	    1556	 1
    1334	    1555	    1557	 1
    1335	    1555	    1558	 1
    1336	    1555	    1559	 1
    1337	    1555	    1560	 1
    1338	    1555	    1561	 1
    1339	    1562	    1563	 1
    1340	    1562	    1564	 1
    1341	    1562	    1565	 1
    1342	    1562	    1566	 1
    1343	    1562	    1567	 1
    1344	    1562	    1568	 1
    1345	    1569	    1570	 1
    1346	    1569	    1571	 1
    1347	    1569	    1572	 1
    1348	    1569	    1573	 1
    1349	    1569	    1574	 1
    1350	    1569	    1575	 1
    1351	    1576	    1577	 1
    1352	    1576	    1578	 1
    1353	    1576	    1579	 1
    1354	    1576	    1580	 1
    1355	    1576	    1581	 1
    1356	    1576	    1582	 1
    1357	    1583	    1584	 1
    1358	    1583	    1585	 1
    1359	    1583	    1586	 1
    1360	    1583	    1587	 1
    1361	    1583	    1588	 1
    1362	    1583	    1589	 1
    1363	    1590	    1591	 1
    1364	    1590	    1592	 1
    1365	    1590	    1593	 1
    1366	    1590	    1594	 1
    1367	    1590	    1595	 1
    1368	    1590	    1596	 1
    1369	    1597	    1598	 1
    1370	    1597	    1599	 1
    1371	    1597	    1600	 1
    1372	    1597	    1601	 1
    1373	    1597	    1602	 1
    1374	    1597	    1603	 1
    1375	    1604	    1605	 1
    1376	    1604	    1606	 1
    1377	    1604	    1607	 1
    1378	    1604	    1608	 1
    1379	    1604	    1609	 1
    1380	    1604	    1610	 1
    1381	    1611	    1612	 1
    1382	    1611	    1613	 1
    1383	    1611	    1614	 1
    1384	    1611	    1615	 1
    1385	    1611	    1616	 1
    1386	    1611	    1617	 1
    1387	    1618	    1619	 1
    1388	    1618	    1620	 1
    1389	    1618	    1621	 1
    1390	    1618	    1622	 1
    1391	    1618	    1623	 1
    1392	    1618	    1624	 1
    1393	    1625	    1626	 1
    1394	    1625	    1627	 1
    1395	    1625	    1628	 1
    1396	    1625	    1629	 1
    1397	    1625	    1630	 1
    1398	    1625	    1631	 1
    1399	    1632	    1633	 1
    1400	    1632	    1634	 1
    1401	    1632	    1635	 1
    1402	    1632	    1636	 1
    1403	    1632	    1637	 1
    1404	    1632	    1638	 1
    1405	    1639	    1640	 1
    1406	    1639	    1641	 1
    1407	    1639	    1642	 1
    1408	    1639	    1643	 1
    1409	    1639	    1644	 1
    1410	    1639	    1645	 1
    1411	    1646	    1647	 1
    1412	    1646	    1648	 1
    1413	    1646	    1649	 1
    1414	    1646	    1650	 1
    1415	    1646	    1651	 1
    1416	    1646	    1652	 1
    1417	    1653	    1654	 1
    1418	    1653	    1655	 1
    1419	    1653	    1656	 1
    1420	    1653	    1657	 1
    1421	    1653	    1658	 1
    1422	    1653	    1659	 1
    1423	    1660	    1661	 1
    1424	    1660	    1662	 1
    1425	    1660	    1663	 1
    1426	    1660	    1664	 1
    1427	    1660	    1665	 1
    1428	    1660	    1666	 1
    1429	    1667	    1668	 1
    1430	    1667	    1669	 1
    1431	    1667	    1670	 1
    1432	    1667	    1671	 1
    1433	    1667	    1672	 1
    1434	    1667	    1673	 1
    1435	    1674	    1675	 1
    1436	    1674	    1676	 1
    1437	    1674	    1677	 1
    1438	    1674	    1678	 1
    1439	    1674	    1679	 1
    1440	    1674	    1680	 1
    1441	    1681	    1682	 1
    1442	    1681	    1683	 1
    1443	    1681	    1684	 1
    1444	    1681	    1685	 1
    1445	    1681	    1686	 1
    1446	    1681	    1687	 1
    1447	    1688	    1689	 1
    1448	    1688	    1690	 1
    1449	    1688	    1691	 1
    1450	    1688	    1692	 1
    1451	    1688	    1693	 1
    1452	    1688	    1694	 1
    1453	    1695	    1696	 1
    1454	    1695	    1697	 1
    1455	    1695	    1698	 1
    1456	    1695	    1699	 1
    1457	    1695	    1700	 1
    1458	    1695	    1701	 1
    1459	    1702	    1703	 1
    1460	    1702	    1704	 1
    1461	    1702	    1705	 1
    1462	    1702	    1706	 1
    1463	    1702	    1707	 1
    1464	    1702	    1708	 1
    1465	    1709	    1710	 1
    1466	    1709	    1711	 1
    1467	    1709	    1712	 1
    1468	    1709	    1713	 1
    1469	    1709	    1714	 1
    1470	    1709	    1715	 1
    1471	    1716	    1717	 1
    1472	    1716	    1718	 1
    1473	    1716	    1719	 1
    1474	    1716	    1720	 1
    1475	    1716	    1721	 1
    1476	    1716	    1722	 1
    1477	    1723	    1724	 1
    1478	    1723	    1725	 1
    1479	    1723	    1726	 1
    1480	    1723	    1727	 1
    1481	    1723	    1728	 1
    1482	    1723	    1729	 1
    1483	    1730	    1731	 1
    1484	    1730	    1732	 1
    1485	    1730	    1733	 1
    1486	    1730	    1734	 1
    1487	    1730	    1735	 1
    1488	    1730	    1736	 1
    1489	    1737	    1738	 1
    1490	    1737	    1739	 1
    1491	    1737	    1740	 1
    1492	    1737	    1741	 1
    1493	    1737	    1742	 1
    1494	    1737	    1743	 1
    1495	    1744	    1745	 1
    1496	    1744	    1746	 1
    1497	    1744	    1747	 1
    1498	    1744	    1748	 1
    1499	    1744	    1749	 1
    1500	    1744	    1750	 1
    1501	    1751	    1752	 1
    1502	    1751	    1753	 1
    1503	    1751	    1754	 1
    1504	    1751	    1755	 1
    1505	    1751	    1756	 1
    1506	    1751	    1757	 1
    1507	    1758	    1759	 1
    1508	    1758	    1760	 1
    1509	    1758	    1761	 1
    1510	    1758	    1762	 1
    1511	    1758	    1763	 1
    1512	    1758	    1764	 1
    1513	    1765	    1766	 1
    1514	    1765	    1767	 1
    1515	    1765	    1768	 1
    1516	    1765	    1769	 1
    1517	    1765	    1770	 1
    1518	    1765	    1771	 1
    1519	    1772	    1773	 1
    1520	    1772	    1774	 1
    1521	    1772	    1775	 1
    1522	    1772	    1776	 1
    1523	    1772	    1777	 1
    1524	    1772	    1778	 1
    1525	    1779	    1780	 1
    1526	    1779	    1781	 1
    1527	    1779	    1782	 1
    1528	    1779	    1783	 1
    1529	    1779	    1784	 1
    1530	    1779	    1785	 1
    1531	    1786	    1787	 1
    1532	    1786	    1788	 1
    1533	    1786	    1789	 1
    1534	    1786	    1790	 1
    1535	    1786	    1791	 1
    1536	    1786	    1792	 1
    1537	    1793	    1794	 1
    1538	    1793	    1795	 1
    1539	    1793	    1796	 1
    1540	    1793	    1797	 1
    1541	    1793	    1798	 1
    1542	    1793	    1799	 1
    1543	    1800	    1801	 1
    1544	    1800	    1802	 1
    1545	    1800	    1803	 1
    1546	    1800	    1804	 1
    1547	    1800	    1805	 1
    1548	    1800	    1806	 1
    1549	    1807	    1808	 1
    1550	    1807	    1809	 1
    1551	    1807	    1810	 1
    1552	    1807	    1811	 1
    1553	    1807	    1812	 1
    1554	    1807	    1813	 1
    1555	    1814	    1815	 1
    1556	    1814	    1816	 1
    1557	    1814	    1817	 1
    1558	    1814	    1818	 1
    1559	    1814	    1819	 1
    1560	    1814	    1820	 1
    1561	    1821	    1822	 1
    1562	    1821	    1823	 1
    1563	    1821	    1824	 1
    1564	    1821	    1825	 1
    1565	    1821	    1826	 1
    1566	    1821	    1827	 1
    1567	    1828	    1829	 1
    1568	    1828	    1830	 1
    1569	    1828	    1831	 1
    1570	    1828	    1832	 1
    1571	    1828	    1833	 1
    1572	    1828	    1834	 1
    1573	    1835	    1836	 1
    1574	    1835	    1837	 1
    1575	    1835	    1838	 1
    1576	    1835	    1839	 1
    1577	    1835	    1840	 1
    1578	    1835	    1841	 1
    1579	    1842	    1843	 1
    1580	    1842	    1844	 1
    1581	    1842	    1845	 1
    1582	    1842	    1846	 1
    1583	    1842	    1847	 1
    1584	    1842	    1848	 1
    1585	    1849	    1850	 1
    1586	    1849	    1851	 1
    1587	    1849	    1852	 1
    1588	    1849	    1853	 1
    1589	    1849	    1854	 1
    1590	    1849	    1855	 1
    1591	    1856	    1857	 1
    1592	    1856	    1858	 1
    1593	    1856	    1859	 1
    1594	    1856	    1860	 1
    1595	    1856	    1861	 1
    1596	    1856	    1862	 1
    1597	    1863	    1864	 1
    1598	    1863	    1865	 1
    1599	    1863	    1866	 1
    1600	    1863	    1867	 1
    1601	    1863	    1868	 1
    1602	    1863	    1869	 1
    1603	    1870	    1871	 1
    1604	    1870	    1872	 1
    1605	    1870	    1873	 1
    1606	    1870	    1874	 1
    1607	    1870	    1875	 1
    1608	    1870	    1876	 1
    1609	    1877	    1878	 1
    1610	    1877	    1879	 1
    1611	    1877	    1880	 1
    1612	    1877	    1881	 1
    1613	    1877	    1882	 1
    1614	    1877	    1883	 1
    1615	    1884	    1885	 1
    1616	    1884	    1886	 1
    1617	    1884	    1887	 1
    1618	    1884	    1888	 1
    1619	    1884	    1889	 1
    1620	    1884	    1890	 1
    1621	    1891	    1892	 1
    1622	    1891	    1893	 1
    1623	    1891	    1894	 1
    1624	    1891	    1895	 1
    1625	    1891	    1896	 1
    1626	    1891	    1897	 1
    1627	    1898	    1899	 1
    1628	    1898	    1900	 1
    1629	    1898	    1901	 1
    1630	    1898	    1902	 1
    1631	    1898	    1903	 1
    1632	    1898	    1904	 1
    1633	    1905	    1906	 1
    1634	    1905	    1907	 1
    1635	    1905	    1908	 1
    1636	    1905	    1909	 1
    1637	    1905	    1910	 1
    1638	    1905	    1911	 1
    1639	    1912	    1913	 1
    1640	    1912	    1914	 1
    1641	    1912	    1915	 1
    1642	    1912	    1916	 1
    1643	    1912	    1917	 1
    1644	    1912	    1918	 1
    1645	    1919	    1920	 1
    1646	    1919	    1921	 1
    1647	    1919	    1922	 1
    1648	    1919	    1923	 1
    1649	    1919	    1924	 1
    1650	    1919	    1925	 1
    1651	    1926	    1927	 1
    1652	    1926	    1928	 1
    1653	    1926	    1929	 1
    1654	    1926	    1930	 1
    1655	    1926	    1931	 1
    1656	    1926	    1932	 1
    1657	    1933	    1934	 1
    1658	    1933	    1935	 1
    1659	    1933	    1936	 1
    1660	    1933	    1937	 1
    1661	    1933	    1938	 1
    1662	    1933	    1939	 1
    1663	    1940	    1941	 1
    1664	    1940	    1942	 1
    1665	    1940	    1943	 1
    1666	    1940	    1944	 1
    1667	    1940	    1945	 1
    1668	    1940	    1946	 1
    1669	    1947	    1948	 1
    1670	    1947	    1949	 1
    1671	    1947	    1950	 1
    1672	    1947	    1951	 1
    1673	    1947	    1952	 1
    1674	    1947	    1953	 1
    1675	    1954	    1955	 1
    1676	    1954	    1956	 1
    1677	    1954	    1957	 1
    1678	    1954	    1958	 1
    1679	    1954	    1959	 1
    1680	    1954	    1960	 1
    1681	    1961	    1962	 1
    1682	    1961	    1963	 1
    1683	    1961	    1964	 1
    1684	    1961	    1965	 1
    1685	    1961	    1966	 1
    1686	    1961	    1967	 1
    1687	    1968	    1969	 1
    1688	    1968	    1970	 1
    1689	    1968	    1971	 1
    1690	    1968	    1972	 1
    1691	    1968	    1973	 1
    1692	    1968	    1974	 1
    1693	    1975	    1976	 1
    1694	    1975	    1977	 1
    1695	    1975	    1978	 1
    1696	    1975	    1979	 1
    1697	    1975	    1980	 1
    1698	    1975	    1981	 1
    1699	    1982	    1983	 1
    1700	    1982	    1984	 1
    1701	    1982	    1985	 1
    1702	    1982	    1986	 1
    1703	    1982	    1987	 1
    1704	    1982	    1988	 1
    1705	    1989	    1990	 1
    1706	    1989	    1991	 1
    1707	    1989	    1992	 1
    1708	    1989	    1993	 1
    1709	    1989	    1994	 1
    1710	    1989	    1995	 1
    1711	    1996	    1997	 1
    1712	    1996	    1998	 1
    1713	    1996	    1999	 1
    1714	    1996	    2000	 1
    1715	    1996	    2001	 1
    1716	    1996	    2002	 1
    1717	    2003	    2004	 1
    1718	    2003	    2005	 1
    1719	    2003	    2006	 1
    1720	    2003	    2007	 1
    1721	    2003	    2008	 1
    1722	    2003	    2009	 1
    1723	    2010	    2011	 1
    1724	    2010	    2012	 1
    1725	    2010	    2013	 1
    1726	    2010	    2014	 1
    1727	    2010	    2015	 1
    1728	    2010	    2016	 1
    1729	    2017	    2018	 1
    1730	    2017	    2019	 1
    1731	    2017	    2020	 1
    1732	    2017	    2021	 1
    1733	    2017	    2022	 1
    1734	    2017	    2023	 1
    1735	    2024	    2025	 1
    1736	    2024	    2026	 1
    1737	    2024	    2027	 1
    1738	    2024	    2028	 1
    1739	    2024	    2029	 1
    1740	    2024	    2030	 1
    1741	    2031	    2032	 1
    1742	    2031	    2033	 1
    1743	    2031	    2034	 1
    1744	    2031	    2035	 1
    1745	    2031	    2036	 1
    1746	    2031	    2037	 1
    1747	    2038	    2039	 1
    1748	    2038	    2040	 1
    1749	    2038	    2041	 1
    1750	    2038	    2042	 1
    1751	    2038	    2043	 1
    1752	    2038	    2044	 1
    1753	    2045	    2046	 1
    1754	    2045	    2047	 1
    1755	    2045	    2048	 1
    1756	    2045	    2049	 1
    1757	    2045	    2050	 1
    1758	    2045	    2051	 1
    1759	    2052	    2053	 1
    1760	    2052	    2054	 1
    1761	    2052	    2055	 1
    1762	    2052	    2056	 1
    1763	    2052	    2057	 1
    1764	    2052	    2058	 1
    1765	    2059	    2060	 1
    1766	    2059	    2061	 1
    1767	    2059	    2062	 1
    1768	    2059	    2063	 1
    1769	    2059	    2064	 1
    1770	    2059	    2065	 1
    1771	    2066	    2067	 1
    1772	    2066	    2068	 1
    1773	    2066	    2069	 1
    1774	    2066	    2070	 1
    1775	    2066	    2071	 1
    1776	    2066	    2072	 1
    1777	    2073	    2074	 1
    1778	    2073	    2075	 1
    1779	    2073	    2076	 1
    1780	    2073	    2077	 1
    1781	    2073	    2078	 1
    1782	    2073	    2079	 1
    1783	    2080	    2081	 1
    1784	    2080	    2082	 1
    1785	    2080	    2083	 1
    1786	    2080	    2084	 1
    1787	    2080	    2085	 1
    1788	    2080	    2086	 1
    1789	    2087	    2088	 1
    1790	    2087	    2089	 1
    1791	    2087	    2090	 1
    1792	    2087	    2091	 1
    1793	    2087	    2092	 1
    1794	    2087	    2093	 1
    1795	    2094	    2095	 1
    1796	    2094	    2096	 1
    1797	    2094	    2097	 1
    1798	    2094	    2098	 1
    1799	    2094	    2099	 1
    1800	    2094	    2100	 1
    1801	    2101	    2102	 1
    1802	    2101	    2103	 1
    1803	    2101	    2104	 1
    1804	    2101	    2105	 1
    1805	    2101	    2106	 1
    1806	    2101	    2107	 1
    1807	    2108	    2109	 1
    1808	    2108	    2110	 1
    1809	    2108	    2111	 1
    1810	    2108	    2112	 1
    1811	    2108	    2113	 1
    1812	    2108	    2114	 1
    1813	    2115	    2116	 1
    1814	    2115	    2117	 1
    1815	    2115	    2118	 1
    1816	    2115	    2119	 1
    1817	    2115	    2120	 1
    1818	    2115	    2121	 1
    1819	    2122	    2123	 1
    1820	    2122	    2124	 1
    1821	    2122	    2125	 1
    1822	    2122	    2126	 1
    1823	    2122	    2127	 1
    1824	    2122	    2128	 1
    1825	    2129	    2130	 1
    1826	    2129	    2131	 1
    1827	    2129	    2132	 1
    1828	    2129	    2133	 1
    1829	    2129	    2134	 1
    1830	    2129	    2135	 1
    1831	    2136	    2137	 1
    1832	    2136	    2138	 1
    1833	    2136	    2139	 1
    1834	    2136	    2140	 1
    1835	    2136	    2141	 1
    1836	    2136	    2142	 1
    1837	    2143	    2144	 1
    1838	    2143	    2145	 1
    1839	    2143	    2146	 1
    1840	    2143	    2147	 1
    1841	    2143	    2148	 1
    1842	    2143	    2149	 1
    1843	    2150	    2151	 1
    1844	    2150	    2152	 1
    1845	    2150	    2153	 1
    1846	    2150	    2154	 1
    1847	    2150	    2155	 1
    1848	    2150	    2156	 1
    1849	    2157	    2158	 1
    1850	    2157	    2159	 1
    1851	    2157	    2160	 1
    1852	    2157	    2161	 1
    1853	    2157	    2162	 1
    1854	    2157	    2163	 1
    1855	    2164	    2165	 1
    1856	    2164	    2166	 1
    1857	    2164	    2167	 1
    1858	    2164	    2168	 1
    1859	    2164	    2169	 1
    1860	    2164	    2170	 1
    1861	    2171	    2172	 1
    1862	    2171	    2173	 1
    1863	    2171	    2174	 1
    1864	    2171	    2175	 1
    1865	    2171	    2176	 1
    1866	    2171	    2177	 1
    1867	    2178	    2179	 1
    1868	    2178	    2180	 1
    1869	    2178	    2181	 1
    1870	    2178	    2182	 1
    1871	    2178	    2183	 1
    1872	    2178	    2184	 1
    1873	    2185	    2186	 1
    1874	    2185	    2187	 1
    1875	    2185	    2188	 1
    1876	    2185	    2189	 1
    1877	    2185	    2190	 1
    1878	    2185	    2191	 1
    1879	    2192	    2193	 1
    1880	    2192	    2194	 1
    1881	    2192	    2195	 1
    1882	    2192	    2196	 1
    1883	    2192	    2197	 1
    1884	    2192	    2198	 1
    1885	    2199	    2200	 1
    1886	    2199	    2201	 1
    1887	    2199	    2202	 1
    1888	    2199	    2203	 1
    1889	    2199	    2204	 1
    1890	    2199	    2205	 1
    1891	    2206	    2207	 1
    1892	    2206	    2208	 1
    1893	    2206	    2209	 1
    1894	    2206	    2210	 1
    1895	    2206	    2211	 1
    1896	    2206	    2212	 1
    1897	    2213	    2214	 1
    1898	    2213	    2215	 1
    1899	    2213	    2216	 1
    1900	    2213	    2217	 1
    1901	    2213	    2218	 1
    1902	    2213	    2219	 1
    1903	    2220	    2221	 1
    1904	    2220	    2222	 1
    1905	    2220	    2223	 1
    1906	    2220	    2224	 1
    1907	    2220	    2225	 1
    1908	    2220	    2226	 1
    1909	    2227	    2228	 1
    1910	    2227	    2229	 1
    1911	    2227	    2230	 1
    1912	    2227	    2231	 1
    1913	    2227	    2232	 1
    1914	    2227	    2233	 1
    1915	    2234	    2235	 1
    1916	    2234	    2236	 1
    1917	    2234	    2237	 1
    1918	    2234	    2238	 1
    1919	    2234	    2239	 1
    1920	    2234	    2240	 1
    1921	    2241	    2242	 1
    1922	    2241	    2243	 1
    1923	    2241	    2244	 1
    1924	    2241	    2245	 1
    1925	    2241	    2246	 1
    1926	    2241	    2247	 1
    1927	    2248	    2249	 1
    1928	    2248	    2250	 1
    1929	    2248	    2251	 1
    1930	    2248	    2252	 1
    1931	    2248	    2253	 1
    1932	    2248	    2254	 1
    1933	    2255	    2256	 1
    1934	    2255	    2257	 1
    1935	    2255	    2258	 1
    1936	    2255	    2259	 1
    1937	    2255	    2260	 1
    1938	    2255	    2261	 1
    1939	    2262	    2263	 1
    1940	    2262	    2264	 1
    1941	    2262	    2265	 1
    1942	    2262	    2266	 1
    1943	    2262	    2267	 1
    1944	    2262	    2268	 1
    1945	    2269	    2270	 1
    1946	    2269	    2271	 1
    1947	    2269	    2272	 1
    1948	    2269	    2273	 1
    1949	    2269	    2274	 1
    1950	    2269	    2275	 1
    1951	    2276	    2277	 1
    1952	    2276	    2278	 1
    1953	    2276	    2279	 1
    1954	    2276	    2280	 1
    1955	    2276	    2281	 1
    1956	    2276	    2282	 1
    1957	    2283	    2284	 1
    1958	    2283	    2285	 1
    1959	    2283	    2286	 1
    1960	    2283	    2287	 1
    1961	    2283	    2288	 1
    1962	    2283	    2289	 1
    1963	    2290	    2291	 1
    1964	    2290	    2292	 1
    1965	    2290	    2293	 1
    1966	    2290	    2294	 1
    1967	    2290	    2295	 1
    1968	    2290	    2296	 1
    1969	    2297	    2298	 1
    1970	    2297	    2299	 1
    1971	    2297	    2300	 1
    1972	    2297	    2301	 1
    1973	    2297	    2302	 1
    1974	    2297	    2303	 1
    1975	    2304	    2305	 1
    1976	    2304	    2306	 1
    1977	    2304	    2307	 1
    1978	    2304	    2308	 1
    1979	    2304	    2309	 1
    1980	    2304	    2310	 1
    1981	    2311	    2312	 1
    1982	    2311	    2313	 1
    1983	    2311	    2314	 1
    1984	    2311	    2315	 1
    1985	    2311	    2316	 1
    1986	    2311	    2317	 1
    1987	    2318	    2319	 1
    1988	    2318	    2320	 1
    1989	    2318	    2321	 1
    1990	    2318	    2322	 1
    1991	    2318	    2323	 1
    1992	    2318	    2324	 1
    1993	    2325	    2326	 1
    1994	    2325	    2327	 1
    1995	    2325	    2328	 1
    1996	    2325	    2329	 1
    1997	    2325	    2330	 1
    1998	    2325	    2331	 1
    1999	    2332	    2333	 1
    2000	    2332	    2334	 1
    2001	    2332	    2335	 1
    2002	    2332	    2336	 1
    2003	    2332	    2337	 1
    2004	    2332	    2338	 1
    2005	    2339	    2340	 1
    2006	    2339	    2341	 1
    2007	    2339	    2342	 1
    2008	    2339	    2343	 1
    2009	    2339	    2344	 1
    2010	    2339	    2345	 1
    2011	    2346	    2347	 1
    2012	    2346	    2348	 1
    2013	    2346	    2349	 1
    2014	    2346	    2350	 1
    2015	    2346	    2351	 1
    2016	    2346	    2352	 1
    2017	    2353	    2354	 1
    2018	    2353	    2355	 1
    2019	    2353	    2356	 1
    2020	    2353	    2357	 1
    2021	    2353	    2358	 1
    2022	    2353	    2359	 1
    2023	    2360	    2361	 1
    2024	    2360	    2362	 1
    2025	    2360	    2363	 1
    2026	    2360	    2364	 1
    2027	    2360	    2365	 1
    2028	    2360	    2366	 1
    2029	    2367	    2368	 1
    2030	    2367	    2369	 1
    2031	    2367	    2370	 1
    2032	    2367	    2371	 1
    2033	    2367	    2372	 1
    2034	    2367	    2373	 1
    2035	    2374	    2375	 1
    2036	    2374	    2376	 1
    2037	    2374	    2377	 1
    2038	    2374	    2378	 1
    2039	    2374	    2379	 1
    2040	    2374	    2380	 1
    2041	    2381	    2382	 1
    2042	    2381	    2383	 1
    2043	    2381	    2384	 1
    2044	    2381	    2385	 1
    2045	    2381	    2386	 1
    2046	    2381	    2387	 1
    2047	    2388	    2389	 1
    2048	    2388	    2390	 1
    2049	    2388	    2391	 1
    2050	    2388	    2392	 1
    2051	    2388	    2393	 1
    2052	    2388	    2394	 1
    2053	    2395	    2396	 1
    2054	    2395	    2397	 1
    2055	    2395	    2398	 1
    2056	    2395	    2399	 1
    2057	    2395	    2400	 1
    2058	    2395	    2401	 1
    2059	    2402	    2403	 1
    2060	    2402	    2404	 1
    2061	    2402	    2405	 1
    2062	    2402	    2406	 1
    2063	    2402	    2407	 1
    2064	    2402	    2408	 1
    2065	    2409	    2410	 1
    2066	    2409	    2411	 1
    2067	    2409	    2412	 1
    2068	    2409	    2413	 1
    2069	    2409	    2414	 1
    2070	    2409	    2415	 1
    2071	    2416	    2417	 1
    2072	    2416	    2418	 1
    2073	    2416	    2419	 1
    2074	    2416	    2420	 1
    2075	    2416	    2421	 1
    2076	    2416	    2422	 1
    2077	    2423	    2424	 1
    2078	    2423	    2425	 1
    2079	    2423	    2426	 1
    2080	    2423	    2427	 1
    2081	    2423	    2428	 1
    2082	    2423	    2429	 1
    2083	    2430	    2431	 1
    2084	    2430	    2432	 1
    2085	    2430	    2433	 1
    2086	    2430	    2434	 1
    2087	    2430	    2435	 1
    2088	    2430	    2436	 1
    2089	    2437	    2438	 1
    2090	    2437	    2439	 1
    2091	    2437	    2440	 1
    2092	    2437	    2441	 1
    2093	    2437	    2442	 1
    2094	    2437	    2443	 1
    2095	    2444	    2445	 1
    2096	    2444	    2446	 1
    2097	    2444	    2447	 1
    2098	    2444	    2448	 1
    2099	    2444	    2449	 1
    2100	    2444	    2450	 1
    2101	    2451	    2452	 1
    2102	    2451	    2453	 1
    2103	    2451	    2454	 1
    2104	    2451	    2455	 1
    2105	    2451	    2456	 1
    2106	    2451	    2457	 1
    2107	    2458	    2459	 1
    2108	    2458	    2460	 1
    2109	    2458	    2461	 1
    2110	    2458	    2462	 1
    2111	    2458	    2463	 1
    2112	    2458	    2464	 1
    2113	    2465	    2466	 1
    2114	    2465	    2467	 1
    2115	    2465	    2468	 1
    2116	    2465	    2469	 1
    2117	    2465	    2470	 1
    2118	    2465	    2471	 1
    2119	    2472	    2473	 1
    2120	    2472	    2474	 1
    2121	    2472	    2475	 1
    2122	    2472	    2476	 1
    2123	    2472	    2477	 1
    2124	    2472	    2478	 1
    2125	    2479	    2480	 1
    2126	    2479	    2481	 1
    2127	    2479	    2482	 1
    2128	    2479	    2483	 1
    2129	    2479	    2484	 1
    2130	    2479	    2485	 1
    2131	    2486	    2487	 1
    2132	    2486	    2488	 1
    2133	    2486	    2489	 1
    2134	    2486	    2490	 1
    2135	    2486	    2491	 1
    2136	    2486	    2492	 1
    2137	    2493	    2494	 1
    2138	    2493	    2495	 1
    2139	    2493	    2496	 1
    2140	    2493	    2497	 1
    2141	    2493	    2498	 1
    2142	    2493	    2499	 1
    2143	    2500	    2501	 1
    2144	    2500	    2502	 1
    2145	    2500	    2503	 1
    2146	    2500	    2504	 1
    2147	    2500	    2505	 1
    2148	    2500	    2506	 1
    2149	    2507	    2508	 1
    2150	    2507	    2509	 1
    2151	    2507	    2510	 1
    2152	    2507	    2511	 1
    2153	    2507	    2512	 1
    2154	    2507	    2513	 1
    2155	    2514	    2515	 1
    2156	    2514	    2516	 1
    2157	    2514	    2517	 1
    2158	    2514	    2518	 1
    2159	    2514	    2519	 1
    2160	    2514	    2520	 1
    2161	    2521	    2522	 1
    2162	    2521	    2523	 1
    2163	    2521	    2524	 1
    2164	    2521	    2525	 1
    2165	    2521	    2526	 1
    2166	    2521	    2527	 1
    2167	    2528	    2529	 1
    2168	    2528	    2530	 1
    2169	    2528	    2531	 1
    2170	    2528	    2532	 1
    2171	    2528	    2533	 1
    2172	    2528	    2534	 1
    2173	    2535	    2536	 1
    2174	    2535	    2537	 1
    2175	    2535	    2538	 1
    2176	    2535	    2539	 1
    2177	    2535	    2540	 1
    2178	    2535	    2541	 1
    2179	    2542	    2543	 1
    2180	    2542	    2544	 1
    2181	    2542	    2545	 1
    2182	    2542	    2546	 1
    2183	    2542	    2547	 1
    2184	    2542	    2548	 1
    2185	    2549	    2550	 1
    2186	    2549	    2551	 1
    2187	    2549	    2552	 1
    2188	    2549	    2553	 1
    2189	    2549	    2554	 1
    2190	    2549	    2555	 1
    2191	    2556	    2557	 1
    2192	    2556	    2558	 1
    2193	    2556	    2559	 1
    2194	    2556	    2560	 1
    2195	    2556	    2561	 1
    2196	    2556	    2562	 1
    2197	    2563	    2564	 1
    2198	    2563	    2565	 1
    2199	    2563	    2566	 1
    2200	    2563	    2567	 1
    2201	    2563	    2568	 1
    2202	    2563	    2569	 1
    2203	    2570	    2571	 1
    2204	    2570	    2572	 1
    2205	    2570	    2573	 1
    2206	    2570	    2574	 1
    2207	    2570	    2575	 1
    2208	    2570	    2576	 1
    2209	    2577	    2578	 1
    2210	    2577	    2579	 1
    2211	    2577	    2580	 1
    2212	    2577	    2581	 1
    2213	    2577	    2582	 1
    2214	    2577	    2583	 1
    2215	    2584	    2585	 1
    2216	    2584	    2586	 1
    2217	    2584	    2587	 1
    2218	    2584	    2588	 1
    2219	    2584	    2589	 1
    2220	    2584	    2590	 1
    2221	    2591	    2592	 1
    2222	    2591	    2593	 1
    2223	    2591	    2594	 1
    2224	    2591	    2595	 1
    2225	    2591	    2596	 1
    2226	    2591	    2597	 1
    2227	    2598	    2599	 1
    2228	    2598	    2600	 1
    2229	    2598	    2601	 1
    2230	    2598	    2602	 1
    2231	    2598	    2603	 1
    2232	    2598	    2604	 1
    2233	    2605	    2606	 1
    2234	    2605	    2607	 1
    2235	    2605	    2608	 1
    2236	    2605	    2609	 1
    2237	    2605	    2610	 1
    2238	    2605	    2611	 1
    2239	    2612	    2613	 1
    2240	    2612	    2614	 1
    2241	    2612	    2615	 1
    2242	    2612	    2616	 1
    2243	    2612	    2617	 1
    2244	    2612	    2618	 1
    2245	    2619	    2620	 1
    2246	    2619	    2621	 1
    2247	    2619	    2622	 1
    2248	    2619	    2623	 1
    2249	    2619	    2624	 1
    2250	    2619	    2625	 1
    2251	    2626	    2627	 1
    2252	    2626	    2628	 1
    2253	    2626	    2629	 1
    2254	    2626	    2630	 1
    2255	    2626	    2631	 1
    2256	    2626	    2632	 1
    2257	    2633	    2634	 1
    2258	    2633	    2635	 1
    2259	    2633	    2636	 1
    2260	    2633	    2637	 1
    2261	    2633	    2638	 1
    2262	    2633	    2639	 1
    2263	    2640	    2641	 1
    2264	    2640	    2642	 1
    2265	    2640	    2643	 1
    2266	    2640	    2644	 1
    2267	    2640	    2645	 1
    2268	    2640	    2646	 1
    2269	    2647	    2648	 1
    2270	    2647	    2649	 1
    2271	    2647	    2650	 1
    2272	    2647	    2651	 1
    2273	    2647	    2652	 1
    2274	    2647	    2653	 1
    2275	    2654	    2655	 1
    2276	    2654	    2656	 1
    2277	    2654	    2657	 1
    2278	    2654	    2658	 1
    2279	    2654	    2659	 1
    2280	    2654	    2660	 1
    2281	    2661	    2662	 1
    2282	    2661	    2663	 1
    2283	    2661	    2664	 1
    2284	    2661	    2665	 1
    2285	    2661	    2666	 1
    2286	    2661	    2667	 1
    2287	    2668	    2669	 1
    2288	    2668	    2670	 1
    2289	    2668	    2671	 1
    2290	    2668	    2672	 1
    2291	    2668	    2673	 1
    2292	    2668	    2674	 1
    2293	    2675	    2676	 1
    2294	    2675	    2677	 1
    2295	    2675	    2678	 1
    2296	    2675	    2679	 1
    2297	    2675	    2680	 1
    2298	    2675	    2681	 1
    2299	    2682	    2683	 1
    2300	    2682	    2684	 1
    2301	    2682	    2685	 1
    2302	    2682	    2686	 1
    2303	    2682	    2687	 1
    2304	    2682	    2688	 1
    2305	    2689	    2690	 1
    2306	    2689	    2691	 1
    2307	    2689	    2692	 1
    2308	    2689	    2693	 1
    2309	    2689	    2694	 1
    2310	    2689	    2695	 1
    2311	    2696	    2697	 1
    2312	    2696	    2698	 1
    2313	    2696	    2699	 1
    2314	    2696	    2700	 1
    2315	    2696	    2701	 1
    2316	    2696	    2702	 1
    2317	    2703	    2704	 1
    2318	    2703	    2705	 1
    2319	    2703	    2706	 1
    2320	    2703	    2707	 1
    2321	    2703	    2708	 1
    2322	    2703	    2709	 1
    2323	    2710	    2711	 1
    2324	    2710	    2712	 1
    2325	    2710	    2713	 1
    2326	    2710	    2714	 1
    2327	    2710	    2715	 1
    2328	    2710	    2716	 1
    2329	    2717	    2718	 1
    2330	    2717	    2719	 1
    2331	    2717	    2720	 1
    2332	    2717	    2721	 1
    2333	    2717	    2722	 1
    2334	    2717	    2723	 1
    2335	    2724	    2725	 1
    2336	    2724	    2726	 1
    2337	    2724	    2727	 1
    2338	    2724	    2728	 1
    2339	    2724	    2729	 1
    2340	    2724	    2730	 1
    2341	    2731	    2732	 1
    2342	    2731	    2733	 1
    2343	    2731	    2734	 1
    2344	    2731	    2735	 1
    2345	    2731	    2736	 1
    2346	    2731	    2737	 1
    2347	    2738	    2739	 1
    2348	    2738	    2740	 1
    2349	    2738	    2741	 1
    2350	    2738	    2742	 1
    2351	    2738	    2743	 1
    2352	    2738	    2744	 1
    2353	    2745	    2746	 1
    2354	    2745	    2747	 1
    2355	    2745	    2748	 1
    2356	    2745	    2749	 1
    2357	    2745	    2750	 1
    2358	    2745	    2751	 1
    2359	    2752	    2753	 1
    2360	    2752	    2754	 1
    2361	    2752	    2755	 1
    2362	    2752	    2756	 1
    2363	    2752	    2757	 1
    2364	    2752	    2758	 1
    2365	    2759	    2760	 1
    2366	    2759	    2761	 1
    2367	    2759	    2762	 1
    2368	    2759	    2763	 1
    2369	    2759	    2764	 1
    2370	    2759	    2765	 1
    2371	    2766	    2767	 1
    2372	    2766	    2768	 1
    2373	    2766	    2769	 1
    2374	    2766	    2770	 1
    2375	    2766	    2771	 1
    2376	    2766	    2772	 1
    2377	    2773	    2774	 1
    2378	    2773	    2775	 1
    2379	    2773	    2776	 1
    2380	    2773	    2777	 1
    2381	    2773	    2778	 1
    2382	    2773	    2779	 1
    2383	    2780	    2781	 1
    2384	    2780	    2782	 1
    2385	    2780	    2783	 1
    2386	    2780	    2784	 1
    2387	    2780	    2785	 1
    2388	    2780	    2786	 1
    2389	    2787	    2788	 1
    2390	    2787	    2789	 1
    2391	    2787	    2790	 1
    2392	    2787	    2791	 1
    2393	    2787	    2792	 1
    2394	    2787	    2793	 1
    2395	    2794	    2795	 1
    2396	    2794	    2796	 1
    2397	    2794	    2797	 1
    2398	    2794	    2798	 1
    2399	    2794	    2799	 1
    2400	    2794	    2800	 1
@<TRIPOS>FF_PBC
    v1.0	       1	     -20	     -20	     -20	      20	      20	      20
6000
@<TRIPOS>MOLECULE
Nanorod
2800	2406
SMALL
NO_CHARGES
@<TRIPOS>ATOM
     1	1	 -19.674	-4.16832	 13.9891	N.3
     2	2	-19.9681	-3.53263	 14.8437	C.1
     3	2	-20.3763	-4.37895	 14.8158	C.1
     4	2	-18.5709	-4.18029	 14.0511	C.1
     5	2	 -18.979	-5.02661	 14.0232	C.1
     6	2	-19.8708	-3.52255	 13.1144	C.1
     7	2	-20.2789	-4.36887	 13.0865	C.1
     8	1	0.464567	 10.4751	 10.9251	N.3
     9	2	0.927082	 11.4568	 10.7171	C.1
    10	2	0.915524	 10.8586	 9.99207	C.1
    11	2	-0.528343	 10.7441	 11.3284	C.1
    12	2	-0.539902	 10.1459	 10.6034	C.1
    13	2	  1.0123	 10.1218	 11.8173	C.1
    14	2	 1.00074	 9.52358	 11.0923	C.1
    15	1	 8.34972	 8.14063	 -12.268	N.3
    16	2	 7.26171	  8.2194	-12.4439	C.1
    17	2	 7.51921	 7.56892	-11.8161	C.1
    18	2	 8.64078	 9.17671	-12.0177	C.1
    19	2	 8.89828	 8.52623	-11.3898	C.1
    20	2	 8.76043	 8.00152	-13.2843	C.1
    21	2	 9.01793	 7.35104	-12.6565	C.1
    22	1	 8.87661	-18.6239	-16.4842	N.3
    23	2	 7.89795	-18.7648	-15.9909	C.1
    24	2	 8.46397	-18.1345	-15.5835	C.1
    25	2	 8.60216	-18.4017	-17.5311	C.1
    26	2	 9.16819	-17.7714	-17.1237	C.1
    27	2	 9.28069	-19.6507	-16.5415	C.1
    28	2	 9.84672	-19.0204	-16.1341	C.1
    29	1	-3.33299	 -7.7087	-16.2423	N.3
    30	2	-2.95962	-7.80315	-15.2066	C.1
    31	2	-2.29731	-7.81934	-15.8735	C.1
    32	2	-3.94294	-6.78803	-16.2079	C.1
    33	2	-3.28063	-6.80422	-16.8748	C.1
    34	2	-4.08989	-8.51064	 -16.312	C.1
    35	2	-3.42758	-8.52683	-16.9789	C.1
    36	1	 8.05204	 -14.988	 6.85711	N.3
    37	2	 7.65295	-15.0507	 5.82867	C.1
    38	2	 7.04678	-14.7355	 6.47425	C.1
    39	2	 8.96761	-14.3814	 6.73619	C.1
    40	2	 8.36144	-14.0661	 7.38178	C.1
    41	2	 8.44483	-16.0048	 7.03808	C.1
    42	2	 7.83866	-15.6895	 7.68367	C.1
    43	1	 8.66244	 -3.0491	 15.4563	N.3
    44	2	 8.68371	-2.34704	 14.6033	C.1
    45	2	 7.87597	 -2.3683	 15.0836	C.1
    46	2	 9.55157	-2.75885	 16.0446	C.1
    47	2	 8.74383	-2.78011	 16.5249	C.1
    48	2	 8.96366	-4.00951	 15.0005	C.1
    49	2	 8.15592	-4.03077	 15.4808	C.1
    50	1	-8.97876	 7.64622	-14.1965	N.3
    51	2	-9.62977	 7.70423	-15.0875	C.1
    52	2	-8.92598	 8.32696	-15.0653	C.1
    53	2	 -8.6688	 6.58582	-14.1788	C.1
    54	2	-7.96501	 7.20854	-14.1566	C.1
    55	2	 -9.6934	 7.71453	-13.3566	C.1
    56	2	-8.98961	 8.33726	-13.3345	C.1
    57	1	-7.24208	 10.6691	-3.39577	N.3
    58	2	-7.83769	 10.1739	-2.60778	C.1
    59	2	-7.48377	 11.0127	 -2.3738	C.1
    60	2	 -7.9254	 10.6729	-4.26406	C.1
    61	2	-7.57147	 11.5117	-4.03007	C.1
    62	2	-6.49404	 9.90225	-3.66645	C.1
    63	2	-6.14011	 10.7411	-3.43246	C.1
    64	1	 5.95302	-19.2176	  2.7598	N.3
    65	2	  5.9146	-19.1443	 1.65796	C.1
    66	2	 6.50858	  -19.79	 1.99523	C.1
    67	2	 4.89399	 -19.361	 3.04048	C.1
    68	2	 5.48797	-20.0068	 3.37774	C.1
    69	2	 6.15948	 -18.179	 3.07507	C.1
    70	2	 6.75346	-18.8247	 3.41233	C.1
    71	1	 2.37823	-14.8875	 12.7917	N.3
    72	2	 3.24728	-14.8772	  13.474	C.1
    73	2	 2.93089	-15.7315	 13.2424	C.1
    74	2	 2.71583	-14.2653	 11.9433	C.1
    75	2	 2.39944	-15.1196	 11.7117	C.1
    76	2	 1.64618	-14.2384	 13.3053	C.1
    77	2	 1.32979	-15.0928	 13.0736	C.1
    78	1	-14.2767	 2.72315	-6.81149	N.3
    79	2	-13.5415	 3.07866	 -7.5558	C.1
    80	2	-13.2201	 2.43283	-6.95318	C.1
    81	2	-15.1309	 2.40117	-7.43403	C.1
    82	2	-14.8094	 1.75533	-6.83141	C.1
    83	2	-14.6399	 3.65837	-6.34858	C.1
    84	2	-14.3185	 3.01254	-5.74596	C.1
    85	1	 13.1475	-17.4569	-11.2239	N.3
    86	2	 13.2683	-17.0627	-10.1988	C.1
    87	2	 13.2327	-16.4117	-10.8759	C.1
    88	2	 12.2529	-18.1005	-11.1432	C.1
    89	2	 12.2174	-17.4494	-11.8203	C.1
    90	2	 13.9745	-18.1841	 -11.314	C.1
    91	2	 13.9389	-17.5331	-11.9911	C.1
    92	1	-0.846296	 -16.009	 10.4963	N.3
    93	2	0.126143	-16.3348	 10.9076	C.1
    94	2	0.139671	-15.5122	 10.4529	C.1
    95	2	-1.51792	-16.0507	 11.3727	C.1
    96	2	-1.50439	-15.2281	  10.918	C.1
    97	2	 -1.1674	-16.8756	 9.89061	C.1
    98	2	-1.15388	 -16.053	 9.43596	C.1
    99	1	  14.885	 13.1891	-14.5493	N.3
   100	2	   15.16	 12.8594	-15.5674	C.1
   101	2	 15.8629	 13.2259	-15.0623	C.1
   102	2	 14.4105	 12.2919	-14.1127	C.1
   103	2	 15.1135	 12.6584	-13.6076	C.1
   104	2	   14.03	 13.8665	-14.7255	C.1
   105	2	 14.7329	  14.233	-14.2204	C.1
   106	1	-5.55886	 8.63147	 12.7433	N.3
   107	2	-5.19046	 8.44869	 13.7688	C.1
   108	2	-4.73565	 9.12079	 13.2944	C.1
   109	2	 -6.6393	  8.8095	 12.8909	C.1
   110	2	-6.18449	  9.4816	 12.4166	C.1
   111	2	-5.52902	 7.62807	 12.2816	C.1
   112	2	-5.07422	 8.30017	 11.8072	C.1
   113	1	-17.2023	-1.06669	-6.48752	N.3
   114	2	-17.8924	-1.54755	  -5.771	C.1
   115	2	-16.9865	-1.77653	 -5.6687	C.1
   116	2	-17.4309	0.00852498	-6.37558	C.1
   117	2	-16.5249	-0.220456	-6.27328	C.1
   118	2	-17.6425	-1.31758	-7.46941	C.1
   119	2	-16.7366	-1.54656	-7.36712	C.1
   120	1	 13.0139	-11.7237	 -13.984	N.3
   121	2	 13.2024	-12.4385	-14.8052	C.1
   122	2	 13.5509	-11.5757	-14.9382	C.1
   123	2	 13.3986	-12.2539	-13.0942	C.1
   124	2	 13.7472	-11.3911	-13.2272	C.1
   125	2	 11.9179	-11.7728	-13.8529	C.1
   126	2	 12.2664	  -10.91	 -13.986	C.1
   127	1	-19.0774	 1.60842	-3.51181	N.3
   128	2	-18.9192	0.538474	-3.28576	C.1
   129	2	-19.8166	0.795214	  -3.397	C.1
   130	2	-18.4272	 1.78016	-4.38857	C.1
   131	2	-19.3246	  2.0369	 -4.4998	C.1
   132	2	-18.5396	 2.12151	-2.69426	C.1
   133	2	 -19.437	 2.37825	-2.80549	C.1
   134	1	 16.8405	 3.24846	-1.12499	N.3
   135	2	 15.9248	 2.95981	-0.578101	C.1
   136	2	 15.7921	 3.55365	 -1.2946	C.1
   137	2	 17.2891	 2.27614	 -1.3973	C.1
   138	2	 17.1565	 2.86998	-2.11379	C.1
   139	2	 17.5064	 3.61867	-0.324821	C.1
   140	2	 17.3738	 4.21251	-1.04132	C.1
   141	1	 13.2352	-8.58636	 3.00198	N.3
   142	2	  12.765	-9.33122	  2.3349	C.1
   143	2	  13.088	 -9.6715	 3.14941	C.1
   144	2	 12.4599	-7.80443	 3.09374	C.1
   145	2	  12.783	-8.14471	 3.90825	C.1
   146	2	  13.996	-8.11303	 2.35552	C.1
   147	2	 14.3191	-8.45331	 3.17004	C.1
   148	1	-17.0254	 16.7978	 3.67449	N.3
   149	2	-15.9315	 16.6499	 3.62384	C.1
   150	2	-16.3191	 17.0326	 2.85777	C.1
   151	2	-17.1593	 17.3748	 4.60722	C.1
   152	2	-17.5469	 17.7575	 3.84114	C.1
   153	2	-17.4038	 15.7946	 3.94152	C.1
   154	2	-17.7914	 16.1774	 3.17544	C.1
   155	1	-11.2951	-13.7129	-19.9377	N.3
   156	2	-10.6008	-13.5685	-19.0904	C.1
   157	2	-10.5891	-12.8868	-19.7375	C.1
   158	2	-12.2692	-13.8732	-19.4417	C.1
   159	2	-12.2575	-13.1915	-20.0888	C.1
   160	2	-11.0328	-14.7194	-20.3106	C.1
   161	2	 -11.021	-14.0377	-20.9577	C.1
   162	1	 19.2672	-13.9564	 14.4059	N.3
   163	2	 19.2908	-12.9066	 14.0618	C.1
   164	2	 18.4472	-13.2193	 14.3342	C.1
   165	2	 20.0525	-13.9852	 15.1827	C.1
   166	2	 19.2089	-14.2979	 15.4551	C.1
   167	2	 19.7238	-14.5083	 13.5646	C.1
   168	2	 18.8802	-14.8209	 13.8371	C.1
   169	1	 12.9222	-14.6122	-12.9461	N.3
   170	2	 12.7504	 -15.585	-12.4512	C.1
   171	2	 13.6524	-15.3639	 -12.596	C.1
   172	2	 12.3606	-13.9032	-12.3114	C.1
   173	2	 13.2627	-13.6821	-12.4562	C.1
   174	2	 12.3026	-14.6799	-13.8584	C.1
   175	2	 13.2047	-14.4588	-14.0032	C.1
   176	1	 12.9115	-10.4778	 18.3253	N.3
   177	2	 12.9254	-10.7182	 17.2469	C.1
   178	2	 13.5358	-11.2028	 17.7725	C.1
   179	2	  11.849	-10.6074	 18.5993	C.1
   180	2	 12.4594	-11.0919	 19.1248	C.1
   181	2	 13.0445	-9.38107	 18.3413	C.1
   182	2	 13.6549	-9.86559	 18.8669	C.1
   183	1	 -2.5222	-0.260199	 10.8569	N.3
   184	2	-2.56829	0.123206	 11.8921	C.1
   185	2	-1.83605	  0.4254	 11.3861	C.1
   186	2	-3.51531	-0.00165076	 10.4473	C.1
   187	2	-2.78306	0.300544	 9.94124	C.1
   188	2	-2.58136	-1.35544	 10.9903	C.1
   189	2	-1.84911	-1.05325	 10.4842	C.1
   190	1	 4.39446	-15.1471	 2.00514	N.3
   191	2	   4.707	-16.1599	 2.31751	C.1
   192	2	 5.35637	-15.4892	 2.42775	C.1
   193	2	 3.45531	-14.9886	 2.56525	C.1
   194	2	 4.10468	 -14.318	 2.67548	C.1
   195	2	 4.04701	-15.2989	0.967301	C.1
   196	2	 4.69638	-14.6282	 1.07753	C.1
   197	1	 19.9231	0.923193	-8.15974	N.3
   198	2	 20.2492	0.973389	-7.10519	C.1
   199	2	 20.5304	0.209158	-7.57471	C.1
   200	2	 20.2699	 1.88554	-8.57743	C.1
   201	2	 20.5512	 1.12131	-9.04695	C.1
   202	2	 18.8284	   1.057	-8.09231	C.1
   203	2	 19.1097	0.292766	-8.56184	C.1
   204	1	 2.38729	-17.7528	-14.2928	N.3
   205	2	 2.88524	-18.7323	-14.1767	C.1
   206	2	 3.41893	-17.9858	-13.9729	C.1
   207	2	 1.47432	-17.8593	-13.6796	C.1
   208	2	   2.008	-17.1128	-13.4759	C.1
   209	2	 2.00177	-17.7865	-15.3277	C.1
   210	2	 2.53545	  -17.04	 -15.124	C.1
   211	1	-7.45202	 10.8364	   1.459	N.3
   212	2	-6.94671	 11.2411	 2.35444	C.1
   213	2	-6.59223	 10.4351	 2.02524	C.1
   214	2	-7.42838	 11.6843	0.750835	C.1
   215	2	 -7.0739	 10.8783	 0.42163	C.1
   216	2	-8.51268	 10.7929	 1.76552	C.1
   217	2	 -8.1582	 9.98693	 1.43632	C.1
   218	1	-6.52673	  10.171	  -18.78	N.3
   219	2	-5.93951	 11.0801	 -18.557	C.1
   220	2	-5.59887	  10.544	-19.2499	C.1
   221	2	-7.54603	 10.5634	 -18.947	C.1
   222	2	-7.20538	 10.0274	  -19.64	C.1
   223	2	-6.60561	 9.67367	-17.7965	C.1
   224	2	-6.26497	 9.13762	-18.4895	C.1
   225	1	-3.88501	-14.1022	 15.2079	N.3
   226	2	-4.78543	-13.7866	 14.6506	C.1
   227	2	-4.64208	-13.3395	 15.4649	C.1
   228	2	-3.07602	-13.9933	 14.4632	C.1
   229	2	-2.93267	-13.5463	 15.2775	C.1
   230	2	-4.00862	-15.1972	 15.2883	C.1
   231	2	-3.86527	-14.7501	 16.1026	C.1
   232	1	 3.81875	-5.51749	-4.59153	N.3
   233	2	 2.99261	-5.87919	-3.95314	C.1
   234	2	 3.35648	-6.51961	-4.53714	C.1
   235	2	 4.53018	 -5.0868	-3.86405	C.1
   236	2	 4.89406	-5.72722	-4.44805	C.1
   237	2	 3.38766	-4.62584	-5.08141	C.1
   238	2	 3.75153	-5.26626	-5.66542	C.1
   239	1	 5.21872	-7.39456	-13.9671	N.3
   240	2	 5.06713	-6.64709	-13.1676	C.1
   241	2	 5.51084	-6.32948	 -13.933	C.1
   242	2	 4.20072	-7.78657	-14.1427	C.1
   243	2	 4.64443	-7.46896	-14.9081	C.1
   244	2	 5.72275	-8.22643	-13.4429	C.1
   245	2	 6.16647	-7.90882	-14.2083	C.1
   246	1	 3.01141	 1.61801	 6.93129	N.3
   247	2	 3.69722	  1.3311	 7.74875	C.1
   248	2	 2.78376	 1.31837	 7.97017	C.1
   249	2	 3.30467	0.943174	 6.10699	C.1
   250	2	 2.39121	0.930436	 6.32842	C.1
   251	2	 3.40254	 2.59885	 6.60598	C.1
   252	2	 2.48908	 2.58611	  6.8274	C.1
   253	1	 5.14956	-14.4678	-5.45281	N.3
   254	2	 4.64979	-13.4905	-5.32638	C.1
   255	2	 4.80361	-13.9668	-4.53073	C.1
   256	2	 6.05594	-14.2149	-6.03195	C.1
   257	2	 6.20976	-14.6913	 -5.2363	C.1
   258	2	 4.51221	-14.9834	-6.19358	C.1
   259	2	 4.66603	-15.4598	-5.39793	C.1
   260	1	 9.50283	 18.9282	  1.8312	N.3
   261	2	 8.67543	 19.2851	 1.19172	C.1
   262	2	 9.28321	 19.9476	 1.46598	C.1
   263	2	 9.94121	 18.1038	 1.24036	C.1
   264	2	  10.549	 18.7664	 1.51462	C.1
   265	2	 8.98018	 18.4018	 2.65012	C.1
   266	2	 9.58796	 19.0644	 2.92438	C.1
   267	1	-5.33744	-6.55529	 -14.656	N.3
   268	2	-4.35308	-6.77923	-15.1052	C.1
   269	2	-4.45539	   -7.05	-14.2109	C.1
   270	2	-6.04946	-7.00894	-15.3688	C.1
   271	2	-6.15176	-7.27971	-14.4745	C.1
   272	2	-5.45633	-5.47154	-14.8355	C.1
   273	2	-5.55864	-5.74231	-13.9412	C.1
   274	1	 15.6447	-1.19982	-12.6921	N.3
   275	2	 14.6236	-1.58498	 -12.865	C.1
   276	2	 14.9302	-1.64857	-11.9787	C.1
   277	2	 15.6006	-0.174601	-13.1018	C.1
   278	2	 15.9073	-0.238187	-12.2155	C.1
   279	2	 16.2499	-1.74449	-13.4391	C.1
   280	2	 16.5565	-1.80808	-12.5528	C.1
   281	1	  13.332	 14.5532	-10.0639	N.3
   282	2	 12.6344	 14.9203	-9.28962	C.1
   283	2	 12.2432	 14.7321	-10.1234	C.1
   284	2	 13.8264	 13.6959	-9.57249	C.1
   285	2	 13.4352	 13.5077	-10.4063	C.1
   286	2	 14.1219	 15.3256	-10.0789	C.1
   287	2	 13.7308	 15.1375	-10.9127	C.1
   288	1	-1.97896	-3.06444	 11.0053	N.3
   289	2	-1.74637	-3.69489	 11.8824	C.1
   290	2	-1.33967	-2.84743	   11.88	C.1
   291	2	-3.08369	-3.05566	 10.9863	C.1
   292	2	-2.67699	 -2.2082	 10.9839	C.1
   293	2	-1.71688	-3.71397	 10.1507	C.1
   294	2	-1.31018	-2.86651	 10.1483	C.1
   295	1	-12.9699	 15.2665	-11.1627	N.3
   296	2	-12.6061	 15.3951	 -12.198	C.1
   297	2	 -11.979	 15.5931	-11.5264	C.1
   298	2	-13.3537	 14.2304	-11.1567	C.1
   299	2	-12.7266	 14.4284	 -10.485	C.1
   300	2	-13.8907	 15.8769	-11.1408	C.1
   301	2	-13.2636	  16.075	-10.4691	C.1
   302	1	-15.6612	-1.73638	 16.3472	N.3
   303	2	-16.4865	-1.43265	 15.6782	C.1
   304	2	-15.6225	-1.25619	 15.3528	C.1
   305	2	-15.8789	-2.80054	 16.5498	C.1
   306	2	-15.0149	-2.62408	 16.2243	C.1
   307	2	-15.9143	-1.24065	 17.3017	C.1
   308	2	-15.0502	-1.06419	 16.9762	C.1
   309	1	-3.17106	 19.2104	-14.0946	N.3
   310	2	-2.61209	 19.4331	-15.0213	C.1
   311	2	-2.11485	 19.5066	 -14.227	C.1
   312	2	-3.59771	 18.2103	-14.2911	C.1
   313	2	-3.10046	 18.2838	-13.4968	C.1
   314	2	-4.04926	 19.8774	-14.1628	C.1
   315	2	-3.55201	  19.951	-13.3685	C.1
   316	1	 -2.5832	 19.9531	 18.3849	N.3
   317	2	  -3.209	 19.0827	 18.6526	C.1
   318	2	-3.09452	 19.2244	 17.7304	C.1
   319	2	 -1.6516	 19.7787	 18.9528	C.1
   320	2	-1.53712	 19.9203	 18.0306	C.1
   321	2	-3.06071	 20.7856	 18.9325	C.1
   322	2	-2.94623	 20.9272	 18.0103	C.1
   323	1	-18.5964	 9.27868	-17.1654	N.3
   324	2	 -18.924	 9.34808	-18.2184	C.1
   325	2	-17.9933	 9.31586	-18.0905	C.1
   326	2	-19.1536	 8.40389	-16.7846	C.1
   327	2	-18.2229	 8.37167	-16.6568	C.1
   328	2	-19.1075	 10.1324	 -16.685	C.1
   329	2	-18.1768	 10.1002	-16.5572	C.1
   330	1	 7.70072	-8.92396	 7.65064	N.3
   331	2	 8.67605	-8.41377	 7.74734	C.1
   332	2	 8.67704	-9.17786	 7.19982	C.1
   333	2	 7.02304	-8.11393	 7.32589	C.1
   334	2	 7.02403	-8.87802	 6.77838	C.1
   335	2	 7.40159	-9.09804	 8.69996	C.1
   336	2	 7.40258	-9.86212	 8.15245	C.1
   337	1	 7.55282	 14.5731	-0.0749324	N.3
   338	2	 7.02714	 13.6715	0.287807	C.1
   339	2	 6.55078	  14.188	-0.336624	C.1
   340	2	 8.51902	  14.175	-0.433812	C.1
   341	2	 8.04266	 14.6915	-1.05824	C.1
   342	2	 7.82682	 15.0982	0.857855	C.1
   343	2	 7.35046	 15.6147	0.233423	C.1
   344	1	 5.35321	 13.7695	-6.53218	N.3
   345	2	 6.28958	 14.3156	-6.31781	C.1
   346	2	 6.23441	 13.9384	-7.17706	C.1
   347	2	 4.56864	 14.5097	-6.29254	C.1
   348	2	 4.51347	 14.1325	-7.15179	C.1
   349	2	 5.28417	  13.049	-5.69732	C.1
   350	2	 5.22901	 12.6719	-6.55656	C.1
   351	1	-14.4487	-8.47247	-3.09195	N.3
   352	2	-13.4339	-8.65877	-2.69648	C.1
   353	2	 -13.633	-7.75831	-2.87845	C.1
   354	2	-15.1036	 -8.9571	-2.34555	C.1
   355	2	-15.3027	-8.05664	-2.52751	C.1
   356	2	-14.5099	-9.15224	-3.96088	C.1
   357	2	 -14.709	-8.25177	-4.14284	C.1
   358	1	-12.3679	  16.006	 13.3884	N.3
   359	2	-11.9128	 16.9785	 13.1277	C.1
   360	2	-12.5094	 16.6323	 12.4891	C.1
   361	2	-12.8033	 16.1904	  14.387	C.1
   362	2	-13.3999	 15.8442	 13.7484	C.1
   363	2	-11.4927	 15.3684	 13.6083	C.1
   364	2	-12.0893	 15.0221	 12.9697	C.1
   365	1	  2.7534	-6.80488	0.760146	N.3
   366	2	 1.75057	 -6.3414	0.739666	C.1
   367	2	 2.30373	-6.06646	 1.44821	C.1
   368	2	 3.14768	-6.59865	-0.251223	C.1
   369	2	 3.70084	-6.32371	0.457318	C.1
   370	2	 2.53223	  -7.887	0.729185	C.1
   371	2	 3.08538	-7.61206	 1.43773	C.1
   372	1	-8.21629	-7.00284	-9.56028	N.3
   373	2	 -7.3781	-7.02687	-10.2798	C.1
   374	2	-7.14054	-7.18324	-9.38389	C.1
   375	2	-8.93705	-7.72288	-9.98794	C.1
   376	2	-8.69949	-7.87925	  -9.092	C.1
   377	2	-8.69006	-6.02421	-9.75697	C.1
   378	2	 -8.4525	-6.18058	-8.86103	C.1
   379	1	-0.0259169	 -1.8947	-15.9178	N.3
   380	2	0.309751	-1.96948	-16.9679	C.1
   381	2	-0.518784	-1.54361	-16.8423	C.1
   382	2	0.830988	-1.41402	-15.4123	C.1
   383	2	0.00245367	-0.988145	-15.2868	C.1
   384	2	0.0243124	-2.93941	-15.5616	C.1
   385	2	-0.804222	-2.51354	 -15.436	C.1
   386	1	-8.41134	-12.2788	 3.23007	N.3
   387	2	-7.64447	-11.5746	 3.60017	C.1
   388	2	-7.54309	-12.4637	 3.88798	C.1
   389	2	-8.38095	-12.1328	 2.13525	C.1
   390	2	-8.27958	-13.0219	 2.42307	C.1
   391	2	-9.36066	-11.7952	 3.52308	C.1
   392	2	-9.25929	-12.6843	 3.81089	C.1
   393	1	 1.89421	 -18.596	 14.7793	N.3
   394	2	   1.228	-18.4868	 13.9046	C.1
   395	2	 2.11591	-18.2101	  13.768	C.1
   396	2	 1.77059	-19.6575	   15.06	C.1
   397	2	  2.6585	-19.3808	 14.9234	C.1
   398	2	 1.35216	-18.0587	 15.5783	C.1
   399	2	 2.24007	 -17.782	 15.4417	C.1
   400	1	 3.97627	 3.14687	 16.7955	N.3
   401	2	 3.16522	 2.84704	 17.4834	C.1
   402	2	  3.5983	 3.65201	 17.7026	C.1
   403	2	 3.48628	 3.13132	 15.8052	C.1
   404	2	 3.91936	  3.9363	 16.0245	C.1
   405	2	 4.62769	 2.25479	 16.7689	C.1
   406	2	 5.06076	 3.05977	 16.9882	C.1
   407	1	-18.7636	 3.70203	 10.8349	N.3
   408	2	-18.3985	 2.67966	 10.6291	C.1
   409	2	 -17.728	    3.32	 10.7843	C.1
   410	2	-19.4738	 3.55367	 11.6683	C.1
   411	2	-18.8033	   4.194	 11.8235	C.1
   412	2	-19.4242	 3.91227	 9.97453	C.1
   413	2	-18.7538	  4.5526	 10.1297	C.1
   414	1	-4.74555	-14.9674	-13.3325	N.3
   415	2	-4.88181	-13.8852	-13.5089	C.1
   416	2	-4.62895	 -14.119	-12.6342	C.1
   417	2	-4.03302	-15.2645	 -14.123	C.1
   418	2	-3.78016	-15.4983	-13.2484	C.1
   419	2	 -5.7011	-15.4019	-13.6775	C.1
   420	2	-5.44824	-15.6357	-12.8029	C.1
   421	1	   10.04	-12.9283	-0.175381	N.3
   422	2	 11.0383	-12.5409	-0.447735	C.1
   423	2	 10.3189	-12.1552	-0.913891	C.1
   424	2	 10.0108	 -12.802	0.921916	C.1
   425	2	 9.29138	-12.4163	 0.45576	C.1
   426	2	 10.1499	-14.0205	-0.30109	C.1
   427	2	 9.43052	-13.6347	-0.767246	C.1
   428	1	 14.5698	 10.2916	-17.6125	N.3
   429	2	 13.7731	 10.1894	-18.3712	C.1
   430	2	 13.5944	 9.77683	-17.5458	C.1
   431	2	 14.7361	  11.383	-17.5663	C.1
   432	2	 14.5574	 10.9704	-16.7408	C.1
   433	2	 15.4683	 9.92136	-18.1384	C.1
   434	2	 15.2897	 9.50875	-17.3129	C.1
   435	1	 -1.2592	 5.92478	-5.39346	N.3
   436	2	-1.02476	 7.00272	-5.45668	C.1
   437	2	-1.16326	 6.67399	-4.58699	C.1
   438	2	-0.428028	 5.45259	-5.94757	C.1
   439	2	-0.566528	 5.12386	-5.07789	C.1
   440	2	-2.11706	 5.81214	-6.08065	C.1
   441	2	-2.25556	 5.48341	-5.21097	C.1
   442	1	-15.2241	 12.3088	-3.63735	N.3
   443	2	-16.1516	 11.7156	-3.73171	C.1
   444	2	-15.5068	 11.3594	-3.14778	C.1
   445	2	 -15.594	 13.3154	-3.37141	C.1
   446	2	-14.9493	 12.9592	-2.78748	C.1
   447	2	-14.8939	 12.4296	-4.68483	C.1
   448	2	-14.2491	 12.0734	-4.10089	C.1
   449	1	 -11.458	 13.4895	-16.3677	N.3
   450	2	 -10.893	 13.0464	-15.5278	C.1
   451	2	-11.4101	 12.4398	-16.0259	C.1
   452	2	-10.6799	 14.0251	-16.9408	C.1
   453	2	-11.1971	 13.4185	 -17.439	C.1
   454	2	-12.0253	 14.3068	-15.8871	C.1
   455	2	-12.5425	 13.7002	-16.3852	C.1
   456	1	 4.09629	 8.65756	-7.19016	N.3
   457	2	 4.79163	 9.04224	 -7.9579	C.1
   458	2	 5.20113	 8.67083	-7.19765	C.1
   459	2	 3.44823	 7.96713	-7.75952	C.1
   460	2	 3.85772	 7.59572	-6.99928	C.1
   461	2	 3.43476	 9.52043	-6.99343	C.1
   462	2	 3.84426	 9.14902	-6.23318	C.1
   463	1	-16.2188	-4.16608	-4.29437	N.3
   464	2	-15.7264	-4.41963	-5.25044	C.1
   465	2	-15.1623	-4.41685	 -4.4985	C.1
   466	2	-17.0613	 -4.8794	-4.24726	C.1
   467	2	-16.4973	-4.87662	-3.49533	C.1
   468	2	 -16.715	-3.20338	-4.51331	C.1
   469	2	-16.1509	 -3.2006	-3.76138	C.1
   470	1	-4.27009	 6.54301	 8.07874	N.3
   471	2	-4.62197	 7.00867	 7.14053	C.1
   472	2	-3.69017	 6.90718	 7.21158	C.1
   473	2	-4.85024	 5.60392	 8.12771	C.1
   474	2	-3.91844	 5.50244	 8.19877	C.1
   475	2	-4.73577	 7.16866	  8.8614	C.1
   476	2	-3.80397	 7.06718	 8.93245	C.1
   477	1	-10.6087	-8.12405	-5.71566	N.3
   478	2	-11.6315	-8.16621	-5.29972	C.1
   479	2	-10.9959	-8.69503	-4.85255	C.1
   480	2	-10.3888	-7.04143	-5.73602	C.1
   481	2	-9.75317	-7.57026	-5.28885	C.1
   482	2	-10.7593	-8.37127	-6.78199	C.1
   483	2	-10.1237	-8.90009	-6.33483	C.1
   484	1	 3.57849	-5.30075	 10.2597	N.3
   485	2	 3.32336	-4.98442	 11.2871	C.1
   486	2	 4.23659	-5.14578	 11.1336	C.1
   487	2	 3.12913	-4.50952	 9.63285	C.1
   488	2	 4.04236	-4.67089	  9.4793	C.1
   489	2	 2.91313	-6.16628	 10.0893	C.1
   490	2	 3.82636	-6.32764	 9.93574	C.1
   491	1	 17.4145	 -2.5053	-9.32867	N.3
   492	2	 17.2744	-3.35714	-10.0183	C.1
   493	2	  18.071	 -2.8727	 -10.138	C.1
   494	2	 17.2888	-2.96431	-8.33149	C.1
   495	2	 18.0854	-2.47987	-8.45112	C.1
   496	2	 16.4855	-1.92112	-9.45674	C.1
   497	2	 17.2821	-1.43668	-9.57637	C.1
   498	1	 10.6502	0.835224	-8.42945	N.3
   499	2	 10.8511	 1.73737	-9.03499	C.1
   500	2	 11.0701	 1.81047	 -8.1238	C.1
   501	2	 11.1835	0.038467	-8.97861	C.1
   502	2	 11.4026	0.111571	-8.06741	C.1
   503	2	 9.58731	0.620182	-8.64155	C.1
   504	2	 9.80636	0.693286	-7.73036	C.1
   505	1	-13.6071	 -3.5338	  17.261	N.3
   506	2	-12.5063	-3.51443	 17.3542	C.1
   507	2	 -12.915	-4.32184	 17.6086	C.1
   508	2	-13.7772	-3.23096	 16.2121	C.1
   509	2	-14.1859	-4.03837	 16.4665	C.1
   510	2	-13.9249	-2.64489	 17.8352	C.1
   511	2	-14.3336	 -3.4523	 18.0896	C.1
   512	1	-9.07938	-13.1423	-12.3414	N.3
   513	2	-9.08868	-12.7395	-11.3125	C.1
   514	2	-9.92694	-13.0032	-11.6463	C.1
   515	2	-8.31996	-13.9434	-12.2922	C.1
   516	2	-9.15822	-14.2071	-12.6259	C.1
   517	2	-8.57211	-12.3485	-12.9188	C.1
   518	2	-9.41037	-12.6122	-13.2526	C.1
   519	1	 -10.961	-6.60103	0.208299	N.3
   520	2	-12.0107	-6.71601	0.533654	C.1
   521	2	-11.7611	-7.24144	-0.20475	C.1
   522	2	-10.3877	-6.78873	 1.13397	C.1
   523	2	-10.1381	-7.31415	0.395567	C.1
   524	2	-10.8591	 -5.5102	0.0648786	C.1
   525	2	-10.6095	-6.03563	-0.673526	C.1
   526	1	 19.3469	-11.7181	0.378278	N.3
   527	2	 19.3165	-12.2002	 1.37203	C.1
   528	2	 19.9564	-11.5181	 1.27797	C.1
   529	2	 18.2995	-11.4055	0.217029	C.1
   530	2	 18.9394	-10.7233	0.122971	C.1
   531	2	 19.4649	-12.5719	-0.31314	C.1
   532	2	 20.1048	-11.8898	-0.407198	C.1
   533	1	 6.82293	-3.17289	-4.29238	N.3
   534	2	 7.47454	-3.75123	-4.97196	C.1
   535	2	 6.58724	 -3.6446	-5.26338	C.1
   536	2	 7.38463	-2.23323	-4.14277	C.1
   537	2	 6.49733	 -2.1266	-4.43419	C.1
   538	2	 6.94057	-3.69417	-3.32528	C.1
   539	2	 6.05327	-3.58754	 -3.6167	C.1
   540	1	  16.181	 5.51465	 5.10867	N.3
   541	2	   17.19	   5.151	 4.84324	C.1
   542	2	  16.525	 4.99135	 4.19835	C.1
   543	2	 16.3522	 6.57833	 5.35385	C.1
   544	2	 15.6872	 6.41868	 4.70896	C.1
   545	2	 15.9982	 5.05409	 6.09626	C.1
   546	2	 15.3332	 4.89444	 5.45137	C.1
   547	1	 -14.907	-19.2136	 2.34702	N.3
   548	2	-13.8138	-19.3745	 2.34513	C.1
   549	2	-14.3157	-20.0334	 1.90064	C.1
   550	2	-15.0125	-18.1905	 1.94338	C.1
   551	2	-15.5143	-18.8494	 1.49889	C.1
   552	2	-15.1419	-19.0875	  3.4193	C.1
   553	2	-15.6438	-19.7464	 2.97481	C.1
   554	1	 -5.2914	-3.27519	-0.0217644	N.3
   555	2	-4.75991	-2.67263	-0.780269	C.1
   556	2	-5.58698	-2.32428	-0.500615	C.1
   557	2	-4.53818	-3.39672	0.777449	C.1
   558	2	-5.36525	-3.04837	  1.0571	C.1
   559	2	-5.33551	-4.27876	-0.481954	C.1
   560	2	-6.16258	-3.93041	 -0.2023	C.1
   561	1	0.809031	-16.1924	-7.41705	N.3
   562	2	0.349612	-16.6664	-6.53095	C.1
   563	2	 1.21914	-16.3339	-6.40083	C.1
   564	2	0.0582963	-15.4399	-7.71875	C.1
   565	2	0.927822	-15.1074	-7.58863	C.1
   566	2	0.714895	-16.9698	-8.19664	C.1
   567	2	 1.58442	-16.6372	-8.06652	C.1
   568	1	-13.8748	-4.04098	-1.68345	N.3
   569	2	-14.6559	 -3.3002	-1.93233	C.1
   570	2	-14.4585	-3.38088	-1.01684	C.1
   571	2	-13.0259	-3.73728	-2.32227	C.1
   572	2	-12.8285	-3.81796	-1.40677	C.1
   573	2	-14.2385	-4.96445	-2.16898	C.1
   574	2	-14.0411	-5.04513	-1.25349	C.1
   575	1	-17.9261	 14.3243	 11.2243	N.3
   576	2	-18.6844	 13.5254	 11.1374	C.1
   577	2	-18.3207	 13.8218	 10.3228	C.1
   578	2	-17.1964	 13.9033	 11.9392	C.1
   579	2	-16.8327	 14.1997	 11.1247	C.1
   580	2	-18.4429	 15.0997	  11.818	C.1
   581	2	-18.0792	 15.3961	 11.0035	C.1
   582	1	 3.97642	 17.8467	-15.5423	N.3
   583	2	 4.12121	 18.2162	-14.5111	C.1
   584	2	  4.4566	 18.7764	-15.1873	C.1
   585	2	 2.89009	 17.6507	-15.5902	C.1
   586	2	 3.22548	 18.2109	-16.2664	C.1
   587	2	 4.41489	  16.833	-15.5113	C.1
   588	2	 4.75028	 17.3932	-16.1875	C.1
   589	1	 8.08208	-7.91561	 10.7595	N.3
   590	2	 7.63055	-8.81394	 11.2178	C.1
   591	2	 8.48895	-8.93842	 10.8555	C.1
   592	2	 8.01643	-7.16137	 11.5643	C.1
   593	2	 8.87483	-7.28585	  11.202	C.1
   594	2	 7.31165	-7.58479	 10.0399	C.1
   595	2	 8.17005	-7.70927	 9.67759	C.1
   596	1	-16.2836	-8.25572	-12.6754	N.3
   597	2	-16.9012	-7.38755	-12.3825	C.1
   598	2	-16.6791	-7.43072	-13.2949	C.1
   599	2	-16.8594	-9.11664	-12.2905	C.1
   600	2	-16.6374	-9.15981	-13.2029	C.1
   601	2	-15.4232	 -8.1982	-11.9845	C.1
   602	2	-15.2012	-8.24137	-12.8969	C.1
   603	1	 4.66498	-10.0649	 11.3325	N.3
   604	2	 5.37525	-9.88918	 12.1605	C.1
   605	2	 5.01141	-9.11321	 11.7743	C.1
   606	2	 3.92831	-10.7596	 11.7747	C.1
   607	2	 3.56448	-9.98359	 11.3886	C.1
   608	2	 5.23713	-10.7098	 10.6415	C.1
   609	2	  4.8733	-9.93386	 10.2553	C.1
   610	1	-2.60832	-7.35802	-12.8503	N.3
   611	2	-3.61072	-6.90831	-12.7326	C.1
   612	2	-3.28531	-6.93473	-13.6141	C.1
   613	2	-2.71352	-8.34183	-12.3584	C.1
   614	2	 -2.3881	-8.36825	-13.2399	C.1
   615	2	-1.98883	 -6.7843	-12.1376	C.1
   616	2	-1.66342	-6.81072	-13.0191	C.1
   617	1	-14.4089	-11.7479	 8.61912	N.3
   618	2	-13.3754	-11.6319	 8.24593	C.1
   619	2	-13.5078	-12.3476	  8.8407	C.1
   620	2	-15.0089	-11.7899	 7.69226	C.1
   621	2	-15.1413	-12.5056	 8.28704	C.1
   622	2	-14.6439	-10.7482	 9.02702	C.1
   623	2	-14.7762	 -11.464	 9.62179	C.1
   624	1	 14.8946	 13.7534	 19.2193	N.3
   625	2	 15.5388	 14.2177	 19.9877	C.1
   626	2	 15.7082	 13.3084	 19.8201	C.1
   627	2	 15.0174	 14.4226	 18.3488	C.1
   628	2	 15.1868	 13.5134	 18.1812	C.1
   629	2	 13.8735	 13.9838	  19.573	C.1
   630	2	 14.0429	 13.0745	 19.4053	C.1
   631	1	0.818765	-9.82676	-16.2885	N.3
   632	2	0.202346	-9.75197	-17.2025	C.1
   633	2	0.431744	-10.6265	-16.9454	C.1
   634	2	0.236239	-9.25538	-15.5435	C.1
   635	2	0.465636	  -10.13	-15.2864	C.1
   636	2	 1.67361	-9.16108	-16.5052	C.1
   637	2	 1.90301	-10.0357	-16.2481	C.1
   638	1	-17.2589	 12.8599	-18.5886	N.3
   639	2	-16.5369	 12.5467	-17.8131	C.1
   640	2	-16.4915	 13.4528	 -18.059	C.1
   641	2	-18.2304	  12.533	 -18.176	C.1
   642	2	 -18.185	 13.4391	 -18.422	C.1
   643	2	-17.0776	 12.1409	-19.4077	C.1
   644	2	-17.0322	  13.047	-19.6537	C.1
   645	1	-7.46364	-2.48766	 11.8891	N.3
   646	2	-6.52901	-3.06897	 11.7919	C.1
   647	2	-7.15328	-3.41496	 12.4036	C.1
   648	2	-7.82133	-2.40832	 10.8467	C.1
   649	2	 -8.4456	-2.75431	 11.4584	C.1
   650	2	-7.10418	-1.46672	 12.1112	C.1
   651	2	-7.72845	-1.81271	 12.7229	C.1
   652	1	 7.51267	-9.39586	 -18.896	N.3
   653	2	 8.55126	-9.77022	-18.9416	C.1
   654	2	 8.29998	-9.20129	-19.6464	C.1
   655	2	 7.44884	-8.95042	-17.8868	C.1
   656	2	 7.19756	-8.38149	-18.5917	C.1
   657	2	 6.91483	-10.3203	-18.8022	C.1
   658	2	 6.66355	 -9.7514	-19.5071	C.1
   659	1	 15.6976	-8.31142	  14.157	N.3
   660	2	 15.7791	-8.55644	 15.2314	C.1
   661	2	 15.2614	-9.15411	 14.7231	C.1
   662	2	 16.7515	-8.21495	 13.8393	C.1
   663	2	 16.2337	-8.81262	 13.3311	C.1
   664	2	 15.3389	-7.26637	 14.1628	C.1
   665	2	 14.8211	-7.86405	 13.6545	C.1
   666	1	 16.2188	-13.8274	-1.82757	N.3
   667	2	 17.0663	-14.4689	-1.52559	C.1
   668	2	 17.2906	-13.7464	-2.08361	C.1
   669	2	 15.7556	-13.5504	-0.863437	C.1
   670	2	 15.9799	 -12.828	-1.42146	C.1
   671	2	 15.4981	-14.5466	-2.25666	C.1
   672	2	 15.7224	-13.8242	-2.81468	C.1
   673	1	 18.4328	-16.8457	-9.82109	N.3
   674	2	 17.3284	-16.8194	-9.84314	C.1
   675	2	 17.7219	-16.4479	-9.07458	C.1
   676	2	  18.716	-16.3636	-10.7741	C.1
   677	2	 19.1096	 -15.992	-10.0055	C.1
   678	2	 18.6637	-17.9115	-9.99893	C.1
   679	2	 19.0572	  -17.54	-9.23037	C.1
   680	1	-6.31923	 -4.4276	 12.1841	N.3
   681	2	-7.06251	-5.15125	 12.5646	C.1
   682	2	-7.07028	-4.31112	 12.9861	C.1
   683	2	-6.51729	-4.40993	 11.0972	C.1
   684	2	-6.52506	 -3.5698	 11.5188	C.1
   685	2	-5.36623	-4.98183	 12.2582	C.1
   686	2	  -5.374	-4.14169	 12.6797	C.1
   687	1	  16.829	 1.91521	  16.763	N.3
   688	2	  16.839	0.998029	  17.379	C.1
   689	2	 17.6807	 1.38986	 17.2316	C.1
   690	2	  16.095	 2.55899	 17.2803	C.1
   691	2	 16.9366	 2.95082	 17.1328	C.1
   692	2	 16.2906	 1.60088	 15.8507	C.1
   693	2	 17.1322	  1.9927	 15.7033	C.1
   694	1	-19.9205	 -16.124	 6.59693	N.3
   695	2	-20.7937	-16.7784	  6.4228	C.1
   696	2	-20.3598	-16.9016	 7.24752	C.1
   697	2	-20.3263	-15.1106	 6.42617	C.1
   698	2	-19.8924	-15.2339	 7.25088	C.1
   699	2	-19.2924	-16.2982	 5.70475	C.1
   700	2	-18.8585	-16.4215	 6.52946	C.1
   701	1	-6.00817	 19.4172	 6.32815	N.3
   702	2	-7.09597	  19.595	 6.25073	C.1
   703	2	-6.83984	 18.9558	 6.89058	C.1
   704	2	-5.59716	 20.4307	 6.48562	C.1
   705	2	-5.34103	 19.7914	 7.12547	C.1
   706	2	-5.71558	 19.1847	 5.28834	C.1
   707	2	-5.45946	 18.5455	 5.92818	C.1
   708	1	 6.99883	 15.5042	 -6.6807	N.3
   709	2	 8.05083	 15.7588	-6.45839	C.1
   710	2	 7.77205	 15.9427	-7.33707	C.1
   711	2	 6.43821	 16.0336	-5.88925	C.1
   712	2	 6.15944	 16.2175	-6.76792	C.1
   713	2	 6.92561	 14.4446	-6.37645	C.1
   714	2	 6.64683	 14.6285	-7.25512	C.1
   715	1	-1.14201	 17.6012	-15.7301	N.3
   716	2	-1.33667	  16.863	 -16.529	C.1
   717	2	-1.49699	 16.5575	-15.6546	C.1
   718	2	 -1.7439	 18.4742	-16.0407	C.1
   719	2	-1.90422	 18.1687	-15.1663	C.1
   720	2	-0.104996	 17.9246	-15.9323	C.1
   721	2	-0.265315	 17.6191	-15.0579	C.1
   722	1	 -11.925	-8.71018	 2.70358	N.3
   723	2	-11.4513	-7.96844	 3.37165	C.1
   724	2	-11.8634	-7.61127	 2.60601	C.1
   725	2	-12.5958	-9.26841	 3.38126	C.1
   726	2	-13.0079	-8.91125	 2.61562	C.1
   727	2	-11.1097	-9.42942	 2.50629	C.1
   728	2	-11.5219	-9.07226	 1.74065	C.1
   729	1	-18.1829	0.547193	 10.5392	N.3
   730	2	 -17.206	0.876892	 10.1419	C.1
   731	2	-17.1956	0.0543213	 10.5968	C.1
   732	2	 -18.842	0.586138	 9.65317	C.1
   733	2	-18.8317	-0.236433	  10.108	C.1
   734	2	-18.5162	 1.41241	 11.1401	C.1
   735	2	-18.5059	0.589836	 11.5949	C.1
   736	1	 4.06634	-0.930987	 14.6155	N.3
   737	2	 4.32806	-1.99466	 14.7604	C.1
   738	2	 4.64687	-1.60931	 13.9645	C.1
   739	2	 4.42485	-0.453692	 15.5453	C.1
   740	2	 4.74367	-0.0683422	 14.7494	C.1
   741	2	 2.96789	-0.922633	 14.7346	C.1
   742	2	 3.28671	-0.537283	 13.9387	C.1
   743	1	 18.6277	 1.68951	-5.00137	N.3
   744	2	 18.3091	 1.17638	-4.07614	C.1
   745	2	 19.1614	  1.5713	-4.04109	C.1
   746	2	 17.7946	 2.38667	 -5.2033	C.1
   747	2	 18.6469	 2.78159	-5.16825	C.1
   748	2	  18.501	0.913098	-5.77725	C.1
   749	2	 19.3533	 1.30802	 -5.7422	C.1
   750	1	-12.8984	  6.0943	-11.7198	N.3
   751	2	-13.1206	 5.30937	 -12.465	C.1
   752	2	-12.9591	 6.16433	-12.8208	C.1
   753	2	-12.0641	 5.66187	-11.1385	C.1
   754	2	-11.9027	 6.51683	-11.4943	C.1
   755	2	-13.7527	 6.02921	-11.0221	C.1
   756	2	-13.5913	 6.88417	-11.3778	C.1
   757	1	-11.0283	-4.98435	-18.8396	N.3
   758	2	-10.2376	-5.67172	-19.1908	C.1
   759	2	-10.5045	 -5.0186	-19.8119	C.1
   760	2	-10.6189	-4.59173	-17.8914	C.1
   761	2	-10.8857	-3.93861	-18.5126	C.1
   762	2	-11.8281	-5.66927	 -18.505	C.1
   763	2	-12.0949	-5.01615	-19.1261	C.1
   764	1	-19.3679	 17.7659	-19.3398	N.3
   765	2	-20.2395	 17.2722	-19.8061	C.1
   766	2	-20.4035	  17.665	 -18.968	C.1
   767	2	-19.0215	 18.4616	-20.1252	C.1
   768	2	-19.1855	 18.8544	-19.2871	C.1
   769	2	-18.5966	 16.9747	-19.3453	C.1
   770	2	-18.7606	 17.3674	-18.5072	C.1
   771	1	-15.8555	 12.8456	 5.17369	N.3
   772	2	-14.8217	 13.1308	  4.9079	C.1
   773	2	-14.9341	 12.2357	 5.17194	C.1
   774	2	-16.4379	 13.1503	 4.28553	C.1
   775	2	-16.5503	 12.2552	 4.54957	C.1
   776	2	-16.1383	 13.5982	 5.93157	C.1
   777	2	-16.2508	 12.7031	 6.19562	C.1
   778	1	 5.09413	-9.59655	 6.74968	N.3
   779	2	 4.17843	-9.34182	  6.1862	C.1
   780	2	 4.05018	-9.51212	 7.10171	C.1
   781	2	 5.77462	-8.75729	 6.51854	C.1
   782	2	 5.64637	-8.92758	 7.43405	C.1
   783	2	 5.52173	-10.4351	 6.17103	C.1
   784	2	 5.39347	-10.6054	 7.08653	C.1
   785	1	-15.0078	 3.44197	 5.52799	N.3
   786	2	-15.1319	 4.02025	 6.46131	C.1
   787	2	-14.5262	 3.30321	 6.51275	C.1
   788	2	 -14.756	 4.21727	 4.78207	C.1
   789	2	-14.1504	 3.50023	  4.8335	C.1
   790	2	-16.0439	 3.16397	 5.26342	C.1
   791	2	-15.4383	 2.44693	 5.31486	C.1
   792	1	-3.44158	 12.1855	 18.5434	N.3
   793	2	 -2.4658	 11.8355	 18.9258	C.1
   794	2	-2.89027	 12.4888	 19.4517	C.1
   795	2	-4.01088	 11.2483	 18.4082	C.1
   796	2	-4.43535	 11.9016	 18.9341	C.1
   797	2	-3.21135	 12.4929	 17.5074	C.1
   798	2	-3.63582	 13.1462	 18.0333	C.1
   799	1	 15.9706	-9.18541	-2.18846	N.3
   800	2	 16.5958	-8.43433	-1.67277	C.1
   801	2	 16.8528	-9.32852	-1.53875	C.1
   802	2	 15.9828	-8.84538	-3.23969	C.1
   803	2	 16.2398	-9.73957	-3.10567	C.1
   804	2	 14.9477	-8.93523	-1.85395	C.1
   805	2	 15.2047	-9.82941	-1.71993	C.1
   806	1	-2.43675	-1.11637	 2.20494	N.3
   807	2	 -2.3109	-0.737706	 3.23532	C.1
   808	2	-1.59823	-0.551892	 2.65121	C.1
   809	2	-3.41433	-0.700835	 1.90076	C.1
   810	2	-2.70166	-0.51502	 1.31666	C.1
   811	2	-2.65402	-2.18929	 2.35491	C.1
   812	2	-1.94135	-2.00348	  1.7708	C.1
   813	1	 17.4869	 2.49633	 1.80096	N.3
   814	2	 16.9188	 2.03112	 2.62666	C.1
   815	2	 16.4158	 2.58514	 2.05771	C.1
   816	2	 17.9705	 1.63307	 1.30931	C.1
   817	2	 17.4676	 2.18709	0.740365	C.1
   818	2	 18.3257	 2.99378	 2.32032	C.1
   819	2	 17.8228	  3.5478	 1.75137	C.1
   820	1	-15.4787	 11.4246	 18.5817	N.3
   821	2	-14.5063	 11.1089	 19.0007	C.1
   822	2	-14.7788	 10.6454	 18.2297	C.1
   823	2	-15.3574	 12.5156	 18.4559	C.1
   824	2	-15.6299	 12.0521	 17.6849	C.1
   825	2	-16.1637	 11.3445	 19.4449	C.1
   826	2	-16.4363	  10.881	 18.6739	C.1
   827	1	-8.16328	-17.0209	 18.9762	N.3
   828	2	-7.18915	-17.1066	 19.4906	C.1
   829	2	-7.22547	-17.4957	 18.6357	C.1
   830	2	-8.37118	-15.9362	 19.0081	C.1
   831	2	 -8.4075	-16.3253	 18.1532	C.1
   832	2	-8.87503	-17.4362	 19.7122	C.1
   833	2	-8.91135	-17.8253	 18.8573	C.1
   834	1	 17.6102	-2.76411	-17.4695	N.3
   835	2	 17.9619	-1.94705	 -18.125	C.1
   836	2	 17.3811	-2.56414	-18.5318	C.1
   837	2	  17.191	-2.22732	-16.5995	C.1
   838	2	 16.6102	-2.84441	-17.0063	C.1
   839	2	 18.5487	-3.19234	-17.0739	C.1
   840	2	  17.968	-3.80943	-17.4807	C.1
   841	1	-15.4726	  6.9119	-17.5952	N.3
   842	2	-15.5926	 6.70021	 -18.673	C.1
   843	2	-15.5289	 7.61092	-18.4491	C.1
   844	2	-14.5997	 6.29617	-17.3126	C.1
   845	2	 -14.536	 7.20688	-17.0886	C.1
   846	2	 -16.321	 6.37325	 -17.136	C.1
   847	2	-16.2572	 7.28396	 -16.912	C.1
   848	1	-18.0633	-12.5242	  15.117	N.3
   849	2	-18.5175	-11.9082	   14.32	C.1
   850	2	-17.5842	-11.8312	  14.402	C.1
   851	2	 -18.433	-13.5409	 14.8921	C.1
   852	2	-17.4997	-13.4638	 14.9742	C.1
   853	2	-18.6392	-12.2391	 16.0158	C.1
   854	2	 -17.706	 -12.162	 16.0978	C.1
   855	1	-19.1461	-11.0409	 8.68713	N.3
   856	2	-19.6564	-12.0205	 8.65528	C.1
   857	2	-20.0114	-11.4045	 9.27019	C.1
   858	2	-19.1616	-10.7137	  7.6319	C.1
   859	2	-19.5166	-10.0977	 8.24681	C.1
   860	2	-18.0879	-11.3127	 8.85183	C.1
   861	2	-18.4429	-10.6967	 9.46674	C.1
   862	1	-5.82932	 -12.939	 6.24341	N.3
   863	2	 -5.0478	-13.7198	 6.22133	C.1
   864	2	-5.42726	-13.5577	 7.06591	C.1
   865	2	-6.53972	-13.2706	  5.4648	C.1
   866	2	-6.91918	-13.1085	 6.30938	C.1
   867	2	-5.33126	-12.0698	 5.77722	C.1
   868	2	-5.71072	-11.9077	  6.6218	C.1
   869	1	 3.67205	 8.16412	 1.70687	N.3
   870	2	 4.05704	 8.12732	 2.74192	C.1
   871	2	 3.73166	 7.31146	  2.4071	C.1
   872	2	 4.51291	  8.6029	 1.14006	C.1
   873	2	 4.18753	 7.78705	0.805239	C.1
   874	2	 2.93425	 8.98593	 1.74087	C.1
   875	2	 2.60888	 8.17007	 1.40605	C.1
   876	1	  10.487	  15.424	 7.48938	N.3
   877	2	 10.7762	 15.7102	 8.51669	C.1
   878	2	 10.9112	 14.8053	 8.30064	C.1
   879	2	 11.0405	 16.1449	 6.86107	C.1
   880	2	 11.1755	 15.2401	 6.64502	C.1
   881	2	 9.44173	 15.7743	 7.41446	C.1
   882	2	 9.57671	 14.8695	  7.1984	C.1
   883	1	 11.8935	-9.11913	-18.4908	N.3
   884	2	 11.4413	-10.1021	-18.7148	C.1
   885	2	 11.2997	-9.43905	-19.3659	C.1
   886	2	 12.9523	-9.36699	-18.2949	C.1
   887	2	 12.8107	-8.70397	 -18.946	C.1
   888	2	 11.4994	-8.88286	 -17.486	C.1
   889	2	 11.3578	-8.21984	-18.1371	C.1
   890	1	-3.20145	-15.6846	-15.2072	N.3
   891	2	-3.84132	-15.3542	-14.3692	C.1
   892	2	-4.17734	-15.1667	-15.2268	C.1
   893	2	-3.03528	-16.7554	-14.9912	C.1
   894	2	 -3.3713	-16.5679	-15.8488	C.1
   895	2	-2.22373	-15.2253	-14.9748	C.1
   896	2	-2.55975	-15.0379	-15.8324	C.1
   897	1	-5.54972	-4.05239	 6.50289	N.3
   898	2	-6.29772	 -4.1518	 7.31005	C.1
   899	2	-5.86103	-4.94862	 7.06925	C.1
   900	2	-4.88866	-3.24628	   6.869	C.1
   901	2	-4.45196	 -4.0431	  6.6282	C.1
   902	2	-6.11782	-3.56387	 5.69082	C.1
   903	2	-5.68113	-4.36068	 5.45002	C.1
   904	1	-3.22681	 5.27902	-16.0721	N.3
   905	2	-3.55763	 6.15904	-15.4915	C.1
   906	2	-3.83928	 6.14264	-16.3882	C.1
   907	2	-3.56836	 4.42739	-15.4565	C.1
   908	2	   -3.85	 4.41099	-16.3532	C.1
   909	2	-2.13197	 5.27523	-15.9232	C.1
   910	2	-2.41361	 5.25883	-16.8198	C.1
   911	1	-15.4062	  8.3876	-10.6426	N.3
   912	2	-14.8345	 8.51778	-9.70609	C.1
   913	2	 -15.606	 9.04962	-9.78081	C.1
   914	2	-15.5813	 7.29735	-10.6822	C.1
   915	2	-16.3528	 7.82919	-10.7569	C.1
   916	2	-14.6456	  8.5499	-11.4275	C.1
   917	2	-15.4171	 9.08174	-11.5022	C.1
   918	1	-16.7272	-12.3068	-16.1504	N.3
   919	2	-17.2234	-11.6592	-15.4053	C.1
   920	2	-17.7802	-12.2957	-15.8157	C.1
   921	2	-15.8695	-12.7231	 -15.592	C.1
   922	2	-16.4262	-13.3596	-16.0024	C.1
   923	2	-16.2536	-11.5835	-16.8384	C.1
   924	2	-16.8104	  -12.22	-17.2488	C.1
   925	1	 15.9451	-2.16485	-2.43701	N.3
   926	2	 16.3465	-2.03037	 -1.4164	C.1
   927	2	 16.1821	-1.23487	-1.88941	C.1
   928	2	 15.0611	-2.80838	-2.27799	C.1
   929	2	 14.8967	-2.01288	  -2.751	C.1
   930	2	 16.6743	-2.84903	-2.90714	C.1
   931	2	 16.5099	-2.05353	-3.38015	C.1
   932	1	-7.39399	 14.1727	-7.46842	N.3
   933	2	-7.76959	  14.359	-8.49073	C.1
   934	2	-7.28069	 15.0656	-8.10944	C.1
   935	2	-6.84198	 13.2212	-7.57164	C.1
   936	2	-6.35308	 13.9277	-7.19035	C.1
   937	2	-8.30374	 13.8782	-6.91484	C.1
   938	2	-7.81483	 14.5847	-6.53355	C.1
   939	1	 9.92484	 6.52852	 7.74549	N.3
   940	2	 10.9156	 6.04114	 7.78716	C.1
   941	2	 10.1946	 5.50556	 8.06439	C.1
   942	2	 9.86632	 6.89316	 6.70411	C.1
   943	2	 9.14528	 6.35759	 6.98134	C.1
   944	2	 10.0742	 7.45463	 8.32934	C.1
   945	2	 9.35312	 6.91905	 8.60657	C.1
   946	1	-5.02047	  10.902	-4.87365	N.3
   947	2	-4.63604	  10.158	-4.15282	C.1
   948	2	-3.97769	 10.6495	-4.60954	C.1
   949	2	-5.71981	 11.5043	 -4.2662	C.1
   950	2	-5.06146	 11.9958	-4.72291	C.1
   951	2	-5.69309	 10.3064	-5.51685	C.1
   952	2	-5.03474	 10.7979	-5.97357	C.1
   953	1	 18.7059	-14.9883	 12.7182	N.3
   954	2	 17.8377	-14.3371	 12.5106	C.1
   955	2	 18.6294	-13.8863	  12.742	C.1
   956	2	 18.7712	-15.6183	 11.8128	C.1
   957	2	 19.5629	-15.1675	 12.0443	C.1
   958	2	 18.3211	-15.6857	 13.4839	C.1
   959	2	 19.1128	-15.2349	 13.7154	C.1
   960	1	-16.5292	-15.6962	-13.8007	N.3
   961	2	-16.8341	-14.6457	-13.6445	C.1
   962	2	-16.3526	-15.0319	-12.9356	C.1
   963	2	-15.9962	-15.6634	 -14.768	C.1
   964	2	-15.5146	-16.0495	 -14.059	C.1
   965	2	-17.4795	-16.2003	-14.0529	C.1
   966	2	 -16.998	-16.5865	 -13.344	C.1
   967	1	 12.6048	 15.6674	-0.92058	N.3
   968	2	 13.0425	 16.2918	-1.72029	C.1
   969	2	 12.2084	 16.5817	-1.39797	C.1
   970	2	 13.4105	 15.6224	-0.16582	C.1
   971	2	 12.5765	 15.9122	0.156501	C.1
   972	2	 12.6126	 14.6533	-1.35911	C.1
   973	2	 11.7785	 14.9432	-1.03679	C.1
   974	1	-0.731866	-13.2488	 12.5093	N.3
   975	2	-1.15321	-14.2535	 12.3249	C.1
   976	2	-0.528809	-13.9585	 11.6871	C.1
   977	2	-0.349088	-13.3214	 13.5433	C.1
   978	2	0.275309	-13.0264	 12.9055	C.1
   979	2	 -1.6299	-12.6141	 12.6164	C.1
   980	2	 -1.0055	-12.3191	 11.9787	C.1
   981	1	 19.9674	-3.69193	-14.0699	N.3
   982	2	  20.289	-3.46514	-13.0374	C.1
   983	2	 20.3595	-4.36812	-13.2889	C.1
   984	2	 20.5601	-2.98652	-14.6798	C.1
   985	2	 20.6306	 -3.8895	-14.9313	C.1
   986	2	 18.9474	-3.26967	-14.1152	C.1
   987	2	 19.0178	-4.17265	-14.3667	C.1
   988	1	 10.6742	-19.5192	0.0766217	N.3
   989	2	 11.4667	-19.9994	0.678417	C.1
   990	2	 10.6128	-20.3833	0.762474	C.1
   991	2	  11.094	-19.5259	-0.945419	C.1
   992	2	 10.2401	-19.9099	-0.861361	C.1
   993	2	 10.7426	-18.4563	0.370781	C.1
   994	2	 9.88872	-18.8403	0.454838	C.1
   995	1	-8.18201	  0.7375	 3.25697	N.3
   996	2	-8.91349	0.257422	 2.58216	C.1
   997	2	-8.44379	-0.330212	 3.14578	C.1
   998	2	-8.78315	 1.50608	  3.7754	C.1
   999	2	-8.31345	0.918446	 4.33902	C.1
  1000	2	-7.55394	 1.33045	 2.56791	C.1
  1001	2	-7.08424	0.742816	 3.13153	C.1
  1002	1	 2.37132	-16.9375	 1.13901	N.3
  1003	2	 3.37647	-16.6154	 1.46581	C.1
  1004	2	 2.89397	-17.1199	 2.09529	C.1
  1005	2	 2.56935	-17.4484	0.179489	C.1
  1006	2	 2.08685	-17.9529	0.808964	C.1
  1007	2	  1.8919	 -15.992	0.827511	C.1
  1008	2	  1.4094	-16.4966	 1.45699	C.1
  1009	1	 11.0735	-9.44403	 11.9631	N.3
  1010	2	 10.5082	-9.86536	 11.1123	C.1
  1011	2	 10.6645	-10.4608	 11.8227	C.1
  1012	2	 10.4964	-8.53932	 12.2265	C.1
  1013	2	 10.6527	 -9.1348	 12.9369	C.1
  1014	2	 11.9814	 -9.0342	  11.485	C.1
  1015	2	 12.1377	-9.62967	 12.1953	C.1
  1016	1	 5.39433	-0.478105	-14.7954	N.3
  1017	2	 5.87793	-0.947319	-15.6711	C.1
  1018	2	 5.03281	-1.29315	 -15.448	C.1
  1019	2	 5.41092	0.598298	-15.0442	C.1
  1020	2	  4.5658	0.252465	-14.8211	C.1
  1021	2	 6.16182	-0.566546	-14.0054	C.1
  1022	2	  5.3167	-0.912379	-13.7823	C.1
  1023	1	 12.1992	-8.66368	-10.1009	N.3
  1024	2	  11.867	 -7.9014	-10.8285	C.1
  1025	2	 12.5905	-7.64687	 -10.285	C.1
  1026	2	  12.375	-9.55437	-10.7307	C.1
  1027	2	 13.0985	-9.29985	-10.1871	C.1
  1028	2	 11.2704	-8.91705	-9.55872	C.1
  1029	2	 11.9939	-8.66253	-9.01521	C.1
  1030	1	-15.1671	 9.66286	-15.7252	N.3
  1031	2	-14.2131	 9.18858	-15.4322	C.1
  1032	2	-14.8881	 8.59393	-15.7051	C.1
  1033	2	-14.8582	 10.4036	-16.4846	C.1
  1034	2	-15.5331	 9.80898	-16.7574	C.1
  1035	2	-15.4177	 10.2883	-14.8495	C.1
  1036	2	-16.0926	 9.69369	-15.1224	C.1
  1037	1	 7.53698	-16.5403	 3.74469	N.3
  1038	2	 7.65576	-16.4635	 2.64884	C.1
  1039	2	 6.77885	-16.6266	 2.94552	C.1
  1040	2	 7.99154	-15.6034	 4.11428	C.1
  1041	2	 7.11464	-15.7666	 4.41096	C.1
  1042	2	   8.279	-17.3091	 4.02594	C.1
  1043	2	  7.4021	-17.4723	 4.32262	C.1
  1044	1	-5.81709	  4.3859	 2.02812	N.3
  1045	2	-5.90587	 5.47211	 1.84604	C.1
  1046	2	-5.02582	 5.14789	 1.90917	C.1
  1047	2	-6.42396	 3.94349	 1.21765	C.1
  1048	2	-5.54391	 3.61927	 1.28079	C.1
  1049	2	-6.44153	 4.22842	 2.92597	C.1
  1050	2	-5.56148	 3.90419	  2.9891	C.1
  1051	1	 15.0191	 6.24312	  11.352	N.3
  1052	2	 15.1444	 6.54113	 12.4086	C.1
  1053	2	 15.3029	 5.63236	  12.228	C.1
  1054	2	 15.6726	 6.95082	 10.8107	C.1
  1055	2	 15.8311	 6.04205	 10.6301	C.1
  1056	2	 14.0026	 6.60056	 11.1076	C.1
  1057	2	  14.161	 5.69179	  10.927	C.1
  1058	1	 3.65317	 19.4671	-4.88352	N.3
  1059	2	 4.72958	  19.605	-4.67562	C.1
  1060	2	 4.50794	 19.4993	-5.58298	C.1
  1061	2	 3.18614	 20.3347	-4.38362	C.1
  1062	2	 2.96449	  20.229	-5.29098	C.1
  1063	2	 3.37627	 18.6201	-4.23027	C.1
  1064	2	 3.15463	 18.5143	-5.13763	C.1
  1065	1	 12.5208	-13.2036	-19.5965	N.3
  1066	2	 13.2881	-12.6319	 -19.044	C.1
  1067	2	 12.5143	-12.8405	-18.5529	C.1
  1068	2	 13.0825	 -14.074	-19.9809	C.1
  1069	2	 12.3086	-14.2827	-19.4898	C.1
  1070	2	 12.3527	-12.5919	-20.5011	C.1
  1071	2	 11.5788	-12.8006	  -20.01	C.1
  1072	1	-5.82332	-12.0055	-5.10818	N.3
  1073	2	-6.91584	  -12.12	-5.22724	C.1
  1074	2	-6.42504	 -12.111	-6.02888	C.1
  1075	2	-5.55961	-12.8156	-4.40466	C.1
  1076	2	 -5.0688	-12.8067	 -5.2063	C.1
  1077	2	 -5.7307	-11.0942	-4.49018	C.1
  1078	2	 -5.2399	-11.0853	-5.29182	C.1
  1079	1	-19.0434	 13.2945	 2.42903	N.3
  1080	2	-18.1698	  13.871	 2.78323	C.1
  1081	2	-18.5824	 14.2062	 2.00795	C.1
  1082	2	-19.6919	 13.2443	 3.32224	C.1
  1083	2	-20.1045	 13.5794	 2.54696	C.1
  1084	2	-18.6497	 12.2656	 2.34454	C.1
  1085	2	-19.0623	 12.6008	 1.56927	C.1
  1086	1	-4.94453	-6.18426	-16.5529	N.3
  1087	2	-4.29321	-6.73257	-15.8486	C.1
  1088	2	-5.00162	-6.25883	-15.4519	C.1
  1089	2	-5.24664	-6.96306	-17.2761	C.1
  1090	2	-5.95504	-6.48932	-16.8794	C.1
  1091	2	-4.23113	-5.56775	-17.1289	C.1
  1092	2	-4.93953	  -5.094	-16.7323	C.1
  1093	1	 19.9734	  16.772	-3.19795	N.3
  1094	2	 18.9471	 16.4456	-3.44509	C.1
  1095	2	 19.0155	 17.0278	-2.71024	C.1
  1096	2	 20.3468	 17.1779	-4.15541	C.1
  1097	2	 20.4152	   17.76	-3.42056	C.1
  1098	2	 20.5237	 15.8194	-3.09563	C.1
  1099	2	 20.5921	 16.4016	-2.36078	C.1
  1100	1	  14.613	-10.2396	 15.4931	N.3
  1101	2	 15.4566	-10.7393	 16.0025	C.1
  1102	2	 14.9192	-11.3011	 15.4742	C.1
  1103	2	 15.1012	-9.40994	 14.9507	C.1
  1104	2	 14.5638	-9.97174	 14.4223	C.1
  1105	2	 14.0874	 -9.7268	 16.3187	C.1
  1106	2	   13.55	-10.2886	 15.7904	C.1
  1107	1	-17.0813	-19.5013	 12.2637	N.3
  1108	2	-18.0888	-19.9141	 12.0754	C.1
  1109	2	-17.4146	-20.2271	 11.5001	C.1
  1110	2	-16.9188	-19.7111	 13.3363	C.1
  1111	2	-16.2445	-20.0241	 12.7609	C.1
  1112	2	-17.2478	-18.4092	 12.2424	C.1
  1113	2	-16.5735	-18.7222	 11.6671	C.1
  1114	1	-14.6109	-17.0456	  12.536	N.3
  1115	2	-13.6955	-17.1392	 13.1477	C.1
  1116	2	-14.4863	-16.9861	 13.6323	C.1
  1117	2	-14.6035	-17.9679	 11.9276	C.1
  1118	2	-15.3943	-17.8149	 12.4121	C.1
  1119	2	-14.3475	-16.2592	 11.8058	C.1
  1120	2	-15.1383	-16.1062	 12.2904	C.1
  1121	1	 -18.141	 8.51434	-8.97943	N.3
  1122	2	-19.0998	  8.0591	-9.28661	C.1
  1123	2	-18.9741	 8.13865	-8.35845	C.1
  1124	2	-18.1226	  9.4666	-9.53953	C.1
  1125	2	-17.9969	 9.54615	-8.61137	C.1
  1126	2	-17.3891	   7.898	 -9.5044	C.1
  1127	2	-17.2634	 7.97755	-8.57624	C.1
  1128	1	-19.0056	 11.9045	 6.55777	N.3
  1129	2	-19.6801	  12.477	  5.8959	C.1
  1130	2	-19.7179	 11.5433	 5.79418	C.1
  1131	2	 -19.263	 12.2783	 7.56517	C.1
  1132	2	-19.3008	 11.3446	 7.46344	C.1
  1133	2	 -18.017	 12.3586	 6.36481	C.1
  1134	2	-18.0548	 11.4249	 6.26309	C.1
  1135	1	-5.96848	 13.0456	 3.18599	N.3
  1136	2	-6.56551	 12.5558	 3.97627	C.1
  1137	2	-6.92359	 12.4954	 3.10925	C.1
  1138	2	-4.96616	 12.5983	 3.31277	C.1
  1139	2	-5.32424	 12.5379	 2.44575	C.1
  1140	2	-5.83664	 14.0735	 3.56948	C.1
  1141	2	-6.19473	  14.013	 2.70246	C.1
  1142	1	-9.28633	-14.0995	  14.867	N.3
  1143	2	-8.25726	-13.9011	 15.2171	C.1
  1144	2	-8.88632	-14.0637	 15.8964	C.1
  1145	2	-9.15244	-14.9235	 14.1433	C.1
  1146	2	-9.78149	-15.0862	 14.8226	C.1
  1147	2	-9.50569	-13.2298	 14.2218	C.1
  1148	2	-10.1347	-13.3924	 14.9011	C.1
  1149	1	 6.81169	 17.6859	-19.2387	N.3
  1150	2	 5.86152	 17.5326	 -18.696	C.1
  1151	2	 6.31421	 16.7457	-18.9398	C.1
  1152	2	 7.37517	 18.3657	-18.5745	C.1
  1153	2	 7.82786	 17.5788	-18.8183	C.1
  1154	2	 6.51933	 18.3399	  -20.08	C.1
  1155	2	 6.97202	 17.5529	-20.3239	C.1
  1156	1	 10.8619	 11.4154	-0.821107	N.3
  1157	2	 11.6555	 10.6585	 -0.6861	C.1
  1158	2	 10.8231	 10.3202	-0.962265	C.1
  1159	2	  11.324	 12.1459	-1.50927	C.1
  1160	2	 10.4917	 11.8076	-1.78543	C.1
  1161	2	 10.8547	 11.9492	0.146291	C.1
  1162	2	 10.0223	 11.6109	-0.129874	C.1
  1163	1	-6.57411	 16.8104	-0.730634	N.3
  1164	2	-6.14996	 16.5111	0.244771	C.1
  1165	2	-6.57225	 17.3509	0.233131	C.1
  1166	2	-7.22085	 15.9554	-0.997919	C.1
  1167	2	-7.64314	 16.7951	-1.00956	C.1
  1168	2	-5.71809	 16.7052	-1.42129	C.1
  1169	2	-6.14038	  17.545	-1.43293	C.1
  1170	1	-10.8643	 18.4078	-12.5237	N.3
  1171	2	-9.97631	 19.0592	-12.4347	C.1
  1172	2	-10.4316	 18.8917	-11.6296	C.1
  1173	2	  -10.47	 17.5116	-13.0358	C.1
  1174	2	-10.9252	 17.3441	-12.2306	C.1
  1175	2	-11.4639	 18.9037	-13.3082	C.1
  1176	2	-11.9191	 18.7362	 -12.503	C.1
  1177	1	 17.7466	-16.5207	-0.461762	N.3
  1178	2	 16.8388	-16.2895	0.124202	C.1
  1179	2	 17.5335	-16.6983	0.607791	C.1
  1180	2	 18.0032	-15.5503	 -0.9235	C.1
  1181	2	 18.6979	-15.9591	-0.439911	C.1
  1182	2	 17.3557	-17.1092	-1.31137	C.1
  1183	2	 18.0504	 -17.518	-0.827781	C.1
  1184	1	-16.7855	 2.49892	-15.1736	N.3
  1185	2	-17.2848	 2.47436	-14.1882	C.1
  1186	2	-16.7172	 1.74672	-14.3671	C.1
  1187	2	-16.2969	 3.48989	-15.1845	C.1
  1188	2	-15.7293	 2.76225	-15.3634	C.1
  1189	2	-17.6261	 2.62396	-15.8797	C.1
  1190	2	-17.0585	 1.89633	-16.0586	C.1
  1191	1	 10.7971	 5.66511	 18.1451	N.3
  1192	2	 10.3615	 6.63265	 18.4533	C.1
  1193	2	 11.2704	 6.66108	 18.2153	C.1
  1194	2	 10.1129	 5.32258	  17.348	C.1
  1195	2	 11.0218	 5.35101	 17.1099	C.1
  1196	2	 10.5535	 4.99745	 18.9911	C.1
  1197	2	 11.4624	 5.02587	  18.753	C.1
  1198	1	 13.0552	-0.727366	 16.1154	N.3
  1199	2	 12.3168	 -1.3228	 16.6821	C.1
  1200	2	 12.1452	-0.399166	 16.6494	C.1
  1201	2	 13.0887	-1.23418	 15.1341	C.1
  1202	2	 12.9172	-0.310551	 15.1014	C.1
  1203	2	 14.0173	-1.01057	 16.5789	C.1
  1204	2	 13.8457	-0.0869338	 16.5463	C.1
  1205	1	 17.4676	 5.26478	-3.77728	N.3
  1206	2	 17.0465	 6.01368	-4.47204	C.1
  1207	2	 17.6109	 5.37434	 -4.8674	C.1
  1208	2	 16.5729	 4.85518	-3.27472	C.1
  1209	2	 17.1373	 4.21585	-3.67009	C.1
  1210	2	 17.9369	 5.88447	-2.99202	C.1
  1211	2	 18.5013	 5.24513	-3.38739	C.1
  1212	1	-6.92443	  7.5037	-12.3267	N.3
  1213	2	-6.91186	  6.5164	-12.8226	C.1
  1214	2	 -6.0739	 6.82946	-12.5338	C.1
  1215	2	-7.67884	 7.37634	-11.5295	C.1
  1216	2	-6.84089	  7.6894	-11.2407	C.1
  1217	2	-7.43952	 8.14878	-13.0611	C.1
  1218	2	-6.60156	 8.46184	-12.7723	C.1
  1219	1	-13.3559	 13.0899	 18.6072	N.3
  1220	2	-12.6753	 13.7217	  19.206	C.1
  1221	2	-12.2881	 12.9426	 18.8501	C.1
  1222	2	-13.7639	 13.7951	 17.8608	C.1
  1223	2	-13.3766	 13.0161	 17.5049	C.1
  1224	2	-14.2093	 12.9215	 19.2885	C.1
  1225	2	 -13.822	 12.1425	 18.9326	C.1
  1226	1	 -5.0305	   7.152	0.109831	N.3
  1227	2	-5.29245	 6.55576	-0.782799	C.1
  1228	2	-6.00002	 7.04991	-0.410285	C.1
  1229	2	 -4.1671	 7.75127	-0.231155	C.1
  1230	2	-4.87467	 8.24542	0.141359	C.1
  1231	2	 -4.5706	 6.40773	0.784675	C.1
  1232	2	-5.27817	 6.90188	 1.15719	C.1
  1233	1	 19.5022	-16.1009	 11.0928	N.3
  1234	2	  19.288	 -15.051	 11.3624	C.1
  1235	2	 18.8093	-15.6952	 11.8519	C.1
  1236	2	 20.6017	-16.1651	 11.1811	C.1
  1237	2	 20.1231	-16.8092	 11.6705	C.1
  1238	2	 19.3349	-16.1205	 10.0008	C.1
  1239	2	 18.8562	-16.7646	 10.4903	C.1
  1240	1	-10.7483	 9.90148	 9.88535	N.3
  1241	2	-10.3665	  9.3845	 10.7842	C.1
  1242	2	-9.95799	 10.2093	 10.5936	C.1
  1243	2	-11.8378	 9.94666	 10.0636	C.1
  1244	2	-11.4293	 10.7715	 9.87298	C.1
  1245	2	-10.6533	 9.13601	 9.09421	C.1
  1246	2	-10.2448	 9.96087	  8.9036	C.1
  1247	1	-19.9035	 16.1395	-12.6657	N.3
  1248	2	-19.7169	 15.3169	 -11.952	C.1
  1249	2	-20.6162	 15.5776	-12.0355	C.1
  1250	2	-19.4305	 15.7783	-13.5967	C.1
  1251	2	-20.3297	  16.039	-13.6802	C.1
  1252	2	-19.2143	 16.9323	-12.3233	C.1
  1253	2	-20.1135	 17.1929	-12.4068	C.1
  1254	1	-4.68554	-9.32605	-7.93576	N.3
  1255	2	-4.76258	-8.22444	 -7.8982	C.1
  1256	2	-5.41867	-8.68801	-7.41009	C.1
  1257	2	-3.64354	-9.51724	-7.62186	C.1
  1258	2	-4.29963	-9.98082	-7.13375	C.1
  1259	2	-4.66637	-9.54112	-9.01938	C.1
  1260	2	-5.32247	-10.0047	-8.53128	C.1
  1261	1	-8.65443	 14.6312	-13.3338	N.3
  1262	2	-9.39171	 13.8149	-13.2291	C.1
  1263	2	-9.28346	 14.3559	-12.4681	C.1
  1264	2	-8.99149	 15.1609	 -14.243	C.1
  1265	2	-8.88324	  15.702	 -13.482	C.1
  1266	2	-7.74248	 14.1062	-13.6708	C.1
  1267	2	-7.63423	 14.6473	-12.9098	C.1
  1268	1	-13.3239	-9.70774	-6.37808	N.3
  1269	2	 -12.732	-9.93564	-7.28289	C.1
  1270	2	-12.9691	-9.03218	-7.17724	C.1
  1271	2	-12.7111	-10.1314	-5.56207	C.1
  1272	2	-12.9481	-9.22791	-5.45643	C.1
  1273	2	-14.1729	-10.4114	-6.44775	C.1
  1274	2	  -14.41	-9.50794	 -6.3421	C.1
  1275	1	 12.2022	 16.8969	 17.6413	N.3
  1276	2	 11.6708	  16.827	  16.675	C.1
  1277	2	 11.3568	 16.2492	 17.3467	C.1
  1278	2	 12.1459	 17.9735	 17.8833	C.1
  1279	2	 11.8319	 17.3957	  18.555	C.1
  1280	2	  13.261	 16.7568	  17.358	C.1
  1281	2	  12.947	  16.179	 18.0297	C.1
  1282	1	 14.9288	-8.48669	 -19.251	N.3
  1283	2	 14.3354	-7.84976	-19.9316	C.1
  1284	2	 13.8332	-8.41953	-19.3777	C.1
  1285	2	 15.5699	-7.76019	  -18.72	C.1
  1286	2	 15.0677	-8.32996	-18.1661	C.1
  1287	2	 15.6344	-8.99546	-19.9323	C.1
  1288	2	 15.1322	-9.56523	-19.3785	C.1
  1289	1	-9.13305	-3.68301	 2.24358	N.3
  1290	2	-9.23678	-4.75887	 2.01409	C.1
  1291	2	-9.75071	  -4.184	  1.4765	C.1
  1292	2	-8.04136	-3.51894	 2.19719	C.1
  1293	2	-8.55529	-2.94408	  1.6596	C.1
  1294	2	-9.35013	-3.63351	 3.32584	C.1
  1295	2	-9.86406	-3.05864	 2.78824	C.1
  1296	1	 12.4675	0.219224	 6.49862	N.3
  1297	2	  12.005	-0.760489	 6.28148	C.1
  1298	2	 12.0301	-0.160999	 5.55789	C.1
  1299	2	  13.453	-0.0538708	 6.91707	C.1
  1300	2	 13.4781	0.545619	 6.19348	C.1
  1301	2	 11.9069	0.572796	  7.3827	C.1
  1302	2	  11.932	 1.17229	 6.65911	C.1
  1303	1	-8.24317	-11.6248	 9.78166	N.3
  1304	2	-7.47904	-11.4333	 9.00684	C.1
  1305	2	-7.53902	-12.3252	 9.29747	C.1
  1306	2	-9.16566	-11.2134	 9.33378	C.1
  1307	2	-9.22564	-12.1053	 9.62441	C.1
  1308	2	-7.99484	-10.8898	 10.5684	C.1
  1309	2	-8.05482	-11.7817	  10.859	C.1
  1310	1	-18.9552	 -12.395	 19.7672	N.3
  1311	2	-19.6937	-12.4261	 20.5885	C.1
  1312	2	-19.9692	-12.8335	 19.7874	C.1
  1313	2	-18.0481	-12.8274	 20.2266	C.1
  1314	2	-18.3236	-13.2348	 19.4256	C.1
  1315	2	-18.7106	-11.3204	 19.6879	C.1
  1316	2	-18.9861	-11.7279	 18.8869	C.1
  1317	1	 13.6156	-5.23219	-9.41249	N.3
  1318	2	 14.0017	-4.57096	-8.61589	C.1
  1319	2	 14.6535	-4.92167	-9.19533	C.1
  1320	2	 12.8381	-4.61528	-9.89804	C.1
  1321	2	 13.4899	  -4.966	-10.4775	C.1
  1322	2	 13.0293	-5.98424	-8.85438	C.1
  1323	2	 13.6811	-6.33496	-9.43382	C.1
  1324	1	-9.79291	-16.0175	-15.1187	N.3
  1325	2	-10.1553	-14.9767	-15.1987	C.1
  1326	2	 -10.821	-15.6207	-15.0381	C.1
  1327	2	-9.00591	-15.9521	-14.3459	C.1
  1328	2	-9.67157	-16.5961	-14.1853	C.1
  1329	2	-9.21899	-16.1576	-16.0524	C.1
  1330	2	-9.88465	-16.8015	-15.8918	C.1
  1331	1	 6.99264	 19.8961	0.569111	N.3
  1332	2	  6.2858	 20.7446	0.605296	C.1
  1333	2	 5.92526	 19.9372	0.286413	C.1
  1334	2	  7.3941	 19.8578	  1.5978	C.1
  1335	2	 7.03357	 19.0503	 1.27892	C.1
  1336	2	 7.83882	 20.2971	-0.0174424	C.1
  1337	2	 7.47828	 19.4897	-0.336326	C.1
  1338	1	-8.16093	 19.7181	-12.8135	N.3
  1339	2	-7.13688	 19.3084	-12.7476	C.1
  1340	2	-7.34741	 19.9636	-12.1073	C.1
  1341	2	-8.79657	 18.8147	 -12.788	C.1
  1342	2	 -9.0071	 19.4699	-12.1478	C.1
  1343	2	-8.23355	 20.0484	-13.8655	C.1
  1344	2	-8.44408	 20.7036	-13.2252	C.1
  1345	1	 9.39028	 -11.113	 13.2834	N.3
  1346	2	 8.38526	-11.1915	 13.7358	C.1
  1347	2	 8.67723	-10.3155	   13.56	C.1
  1348	2	 9.32143	-11.7719	 12.3991	C.1
  1349	2	  9.6134	-10.8958	 12.2233	C.1
  1350	2	 10.0262	-11.6896	 13.9791	C.1
  1351	2	 10.3182	-10.8135	 13.8033	C.1
  1352	1	0.426504	 11.5658	 -5.9369	N.3
  1353	2	-0.569747	 11.2548	-5.57404	C.1
  1354	2	0.103174	 10.6023	-5.50328	C.1
  1355	2	  0.6178	 12.5005	-5.37972	C.1
  1356	2	 1.29072	  11.848	-5.30896	C.1
  1357	2	0.222077	 11.9207	-6.96309	C.1
  1358	2	0.894998	 11.2682	-6.89233	C.1
  1359	1	  2.7498	 13.4337	-6.71744	N.3
  1360	2	 3.53741	 13.1453	-7.43676	C.1
  1361	2	 3.84584	 13.5561	 -6.6495	C.1
  1362	2	 2.18773	 12.4941	-6.56825	C.1
  1363	2	 2.49616	 12.9049	  -5.781	C.1
  1364	2	 2.06161	 14.0454	-7.32819	C.1
  1365	2	 2.37003	 14.4562	-6.54094	C.1
  1366	1	-9.10565	-3.44961	 4.84764	N.3
  1367	2	-8.43033	 -2.5794	 4.76056	C.1
  1368	2	-8.05031	-3.40575	 4.52325	C.1
  1369	2	-9.98487	-3.14779	 4.25037	C.1
  1370	2	-9.60485	-3.97414	 4.01306	C.1
  1371	2	-9.47179	 -3.3821	 5.88795	C.1
  1372	2	-9.09176	-4.20846	 5.65064	C.1
  1373	1	-19.1844	-7.60823	-7.26513	N.3
  1374	2	-18.5134	  -7.277	-8.07811	C.1
  1375	2	-19.4086	-7.00314	-8.16205	C.1
  1376	2	-18.6689	-7.25679	-6.35319	C.1
  1377	2	-19.5642	-6.98293	-6.43713	C.1
  1378	2	-19.0279	-8.70168	-7.23818	C.1
  1379	2	-19.9232	-8.42782	-7.32213	C.1
  1380	1	-12.2356	-15.4049	-19.4736	N.3
  1381	2	-12.8262	-15.1315	-20.3666	C.1
  1382	2	-12.6546	-14.4262	-19.7693	C.1
  1383	2	-11.3384	-15.8868	-19.9021	C.1
  1384	2	-11.1667	-15.1815	-19.3049	C.1
  1385	2	-12.7996	-16.2544	-19.0481	C.1
  1386	2	 -12.628	-15.5491	-18.4509	C.1
  1387	1	 4.73601	  5.2793	-9.82191	N.3
  1388	2	 4.52923	 5.72064	-10.8136	C.1
  1389	2	 4.40224	 6.29952	-10.0839	C.1
  1390	2	 5.76017	 4.87948	-9.93196	C.1
  1391	2	 5.63318	 5.45836	-9.20232	C.1
  1392	2	 4.10913	 4.36945	-9.81468	C.1
  1393	2	 3.98213	 4.94832	-9.08504	C.1
  1394	1	 1.16351	-3.01187	 8.04017	N.3
  1395	2	 1.93795	-2.23316	 7.91869	C.1
  1396	2	  1.1237	-1.93422	 8.28096	C.1
  1397	2	 1.68033	-3.79278	 8.62663	C.1
  1398	2	0.866087	-3.49384	  8.9889	C.1
  1399	2	 1.09362	-3.45809	 7.03177	C.1
  1400	2	0.279375	-3.15915	 7.39405	C.1
  1401	1	 19.8999	-7.68408	-15.5127	N.3
  1402	2	 19.9586	-7.54752	-16.6076	C.1
  1403	2	 19.5998	-8.36939	-16.3259	C.1
  1404	2	  19.346	-6.78929	-15.1759	C.1
  1405	2	 18.9872	-7.61116	-14.8942	C.1
  1406	2	 20.9332	-7.48263	-15.1772	C.1
  1407	2	 20.5744	-8.30451	-14.8955	C.1
  1408	1	 5.34589	-9.80696	-16.1659	N.3
  1409	2	 5.00095	-9.66755	-15.1254	C.1
  1410	2	 5.91478	-9.86623	-15.2205	C.1
  1411	2	 5.01122	-8.88194	 -16.669	C.1
  1412	2	 5.92505	-9.08062	-16.7641	C.1
  1413	2	 4.65475	-10.5734	-16.5606	C.1
  1414	2	 5.56858	-10.7721	-16.6556	C.1
  1415	1	 -17.947	 16.9723	 11.4306	N.3
  1416	2	-18.0021	 16.8719	 10.3316	C.1
  1417	2	-18.6089	 17.4831	 10.7082	C.1
  1418	2	-16.8803	 17.1975	 11.6105	C.1
  1419	2	-17.4871	 17.8088	 11.9871	C.1
  1420	2	-18.0484	 15.9306	 11.7848	C.1
  1421	2	-18.6552	 16.5418	 12.1614	C.1
  1422	1	-15.1153	 8.18678	 7.60692	N.3
  1423	2	-15.7351	 8.51577	  6.7534	C.1
  1424	2	-16.2001	 8.39184	  7.5609	C.1
  1425	2	-14.3094	 8.94194	 7.63975	C.1
  1426	2	-14.7743	   8.818	 8.44725	C.1
  1427	2	 -14.604	 7.28852	 7.21636	C.1
  1428	2	-15.0689	 7.16459	 8.02386	C.1
  1429	1	 6.92617	 1.12629	 6.78071	N.3
  1430	2	 7.99417	  1.0509	 6.50759	C.1
  1431	2	 7.66481	0.344004	  7.0324	C.1
  1432	2	 6.42488	 1.26066	 5.80526	C.1
  1433	2	 6.09551	0.553763	 6.33006	C.1
  1434	2	 6.85351	 2.12765	 7.24207	C.1
  1435	2	 6.52415	 1.42075	 7.76688	C.1
  1436	1	-0.65879	 10.7856	 12.5297	N.3
  1437	2	-1.50379	 11.2433	  13.075	C.1
  1438	2	-1.42934	  11.492	 12.1716	C.1
  1439	2	-0.797999	 9.70435	 12.7096	C.1
  1440	2	-0.72355	 9.95305	 11.8061	C.1
  1441	2	0.213744	 11.0362	 13.1596	C.1
  1442	2	0.288194	 11.2849	 12.2561	C.1
  1443	1	 16.6488	 5.83752	  -10.46	N.3
  1444	2	 15.8245	 5.52195	-11.1248	C.1
  1445	2	  16.017	 6.44197	-11.1356	C.1
  1446	2	 17.4831	 5.17917	-10.7622	C.1
  1447	2	 17.6756	 6.09918	 -10.773	C.1
  1448	2	 16.3499	 5.43141	-9.47687	C.1
  1449	2	 16.5424	 6.35142	 -9.4877	C.1
  1450	1	-6.98037	 -7.1952	-0.789882	N.3
  1451	2	-7.16756	-7.12793	-1.87677	C.1
  1452	2	-7.17381	-7.99884	-1.52312	C.1
  1453	2	-7.73223	 -6.5084	-0.361092	C.1
  1454	2	-7.73848	-7.37932	-0.00743892	C.1
  1455	2	-6.03193	 -6.6429	-0.66226	C.1
  1456	2	-6.03818	-7.51381	-0.308607	C.1
  1457	1	 8.99883	 19.2384	-19.9277	N.3
  1458	2	 9.18048	 19.6166	-20.9499	C.1
  1459	2	 8.37427	 19.1472	-20.8346	C.1
  1460	2	 9.11078	 20.1413	-19.3007	C.1
  1461	2	 8.30457	 19.6719	-19.1854	C.1
  1462	2	 9.91454	 18.6615	-19.7053	C.1
  1463	2	 9.10833	 18.1921	-19.5901	C.1
  1464	1	 17.7808	-7.87148	-19.3527	N.3
  1465	2	 17.7965	-8.14312	-20.4237	C.1
  1466	2	 18.4373	-8.57856	-19.8913	C.1
  1467	2	 16.7296	-8.04896	-19.0625	C.1
  1468	2	 17.3703	-8.48439	-18.5301	C.1
  1469	2	 17.8552	-6.76921	-19.3706	C.1
  1470	2	  18.496	-7.20464	-18.8382	C.1
  1471	1	 -1.9999	 2.17044	-17.6091	N.3
  1472	2	-1.76921	 1.16095	-17.2236	C.1
  1473	2	-2.29001	 1.18084	-18.0059	C.1
  1474	2	-1.00417	 2.64156	-17.6953	C.1
  1475	2	-1.52497	 2.66145	-18.4776	C.1
  1476	2	-2.44512	 2.67897	-16.7351	C.1
  1477	2	-2.96592	 2.69886	-17.5173	C.1
  1478	1	-17.1915	-3.61979	-16.4841	N.3
  1479	2	-17.8187	 -3.2281	-17.3051	C.1
  1480	2	-16.8985	 -3.0545	-17.3872	C.1
  1481	2	-17.4663	-4.68925	-16.4444	C.1
  1482	2	-16.5461	-4.51566	-16.5265	C.1
  1483	2	-17.6697	 -3.2024	-15.5797	C.1
  1484	2	-16.7495	-3.02881	-15.6618	C.1
  1485	1	 9.73501	-0.856014	 16.7555	N.3
  1486	2	 10.4259	-0.0611413	 16.4212	C.1
  1487	2	 10.8299	-0.888553	 16.6103	C.1
  1488	2	 8.97023	-0.877705	 15.9583	C.1
  1489	2	 9.37424	-1.70512	 16.1474	C.1
  1490	2	 9.20291	-0.38808	 17.6033	C.1
  1491	2	 9.60691	-1.21549	 17.7924	C.1
  1492	1	-7.42526	-11.6831	 7.46314	N.3
  1493	2	-8.40885	-12.1706	 7.58846	C.1
  1494	2	 -8.3339	-11.6084	 6.83888	C.1
  1495	2	-6.71788	-12.5315	 7.48685	C.1
  1496	2	-6.64292	-11.9693	 6.73728	C.1
  1497	2	-7.26148	-11.1904	 8.43848	C.1
  1498	2	-7.18652	-10.6281	 7.68891	C.1
  1499	1	-17.0453	-13.4782	  4.1995	N.3
  1500	2	-17.4531	-12.4523	 4.15408	C.1
  1501	2	-16.7807	-12.6435	 3.52564	C.1
  1502	2	-17.9476	-14.1121	 4.12985	C.1
  1503	2	-17.2752	-14.3032	  3.5014	C.1
  1504	2	-16.7437	-13.5835	 5.25723	C.1
  1505	2	-16.0713	-13.7747	 4.62878	C.1
  1506	1	 16.1764	 8.84566	 14.4431	N.3
  1507	2	 16.6883	 9.30331	 15.3088	C.1
  1508	2	 15.7959	 9.04989	 15.4602	C.1
  1509	2	 16.8557	 8.02376	 14.1535	C.1
  1510	2	 15.9632	 7.77034	 14.3049	C.1
  1511	2	 16.3238	 9.59004	   13.64	C.1
  1512	2	 15.4313	 9.33662	 13.7914	C.1
  1513	1	-17.0941	 19.8991	 16.2675	N.3
  1514	2	-16.9188	  20.184	 15.2144	C.1
  1515	2	-16.9009	 19.2602	 15.3869	C.1
  1516	2	-18.0462	 20.4043	 16.5107	C.1
  1517	2	-18.0283	 19.4804	 16.6832	C.1
  1518	2	-16.3442	 20.4948	 16.8185	C.1
  1519	2	-16.3263	 19.5709	 16.9911	C.1
  1520	1	 -6.7038	-3.19616	 14.4073	N.3
  1521	2	-6.22759	-3.16143	 13.4109	C.1
  1522	2	-7.14704	-3.35686	  13.408	C.1
  1523	2	-6.43181	-2.22163	 14.8514	C.1
  1524	2	-7.35127	-2.41706	 14.8485	C.1
  1525	2	-6.07282	-3.91227	  14.964	C.1
  1526	2	-6.99227	 -4.1077	 14.9612	C.1
  1527	1	-6.66717	 12.5868	-13.5632	N.3
  1528	2	-5.56818	 12.6443	-13.4641	C.1
  1529	2	-5.91094	 12.9351	-14.2897	C.1
  1530	2	-7.02988	 13.1446	-12.6811	C.1
  1531	2	-7.37264	 13.4353	-13.5067	C.1
  1532	2	 -6.8893	 11.5355	-13.3061	C.1
  1533	2	-7.23206	 11.8262	-14.1317	C.1
  1534	1	-2.94231	  3.3015	-9.27718	N.3
  1535	2	-2.11524	 3.93411	-9.64684	C.1
  1536	2	-2.06849	 3.70691	-8.73591	C.1
  1537	2	-2.93739	 2.44557	-9.97591	C.1
  1538	2	-2.89064	 2.21838	-9.06498	C.1
  1539	2	-3.84444	 3.86561	-9.57519	C.1
  1540	2	-3.79769	 3.63842	-8.66426	C.1
  1541	1	-6.17765	 7.48754	-4.95634	N.3
  1542	2	-6.57792	 8.45701	-5.30392	C.1
  1543	2	-7.00641	 8.09477	-4.54974	C.1
  1544	2	-5.09855	  7.6898	 -4.8319	C.1
  1545	2	-5.52704	 7.32756	-4.07772	C.1
  1546	2	-6.21375	 6.85916	-5.86447	C.1
  1547	2	-6.64224	 6.49692	-5.11029	C.1
  1548	1	 14.9177	-3.64811	-11.9554	N.3
  1549	2	 14.2831	-4.05643	-11.1483	C.1
  1550	2	 13.8457	-3.47921	-11.7475	C.1
  1551	2	 15.3592	-4.55245	-12.4116	C.1
  1552	2	 14.9218	-3.97523	-13.0108	C.1
  1553	2	 15.7669	-3.20126	-11.4076	C.1
  1554	2	 15.3294	-2.62405	-12.0068	C.1
  1555	1	-6.49742	 2.35793	 12.6464	N.3
  1556	2	-7.08349	 2.88222	 11.8702	C.1
  1557	2	-6.81204	 3.41588	 12.5948	C.1
  1558	2	-5.67632	 1.89268	 12.0718	C.1
  1559	2	-5.40487	 2.42634	 12.7964	C.1
  1560	2	-7.13963	  1.4984	 12.9103	C.1
  1561	2	-6.86817	 2.03206	 13.6349	C.1
  1562	1	 12.5262	 15.2601	-5.41744	N.3
  1563	2	 12.1781	 15.0538	-4.38925	C.1
  1564	2	 12.7406	 14.3983	   -4.76	C.1
  1565	2	 12.9698	 16.2688	-5.33635	C.1
  1566	2	 13.5323	 15.6133	-5.70711	C.1
  1567	2	  11.587	 15.4409	 -5.9706	C.1
  1568	2	 12.1495	 14.7854	-6.34135	C.1
  1569	1	-11.9042	-10.4248	  9.7553	N.3
  1570	2	-12.2995	-10.0694	  10.724	C.1
  1571	2	-11.6611	-9.50824	 10.3225	C.1
  1572	2	-12.8176	-10.5999	 9.15872	C.1
  1573	2	-12.1793	-10.0387	 8.75724	C.1
  1574	2	-11.5531	-11.4469	 9.98542	C.1
  1575	2	-10.9147	-10.8857	 9.58393	C.1
  1576	1	 13.2837	 5.29856	 7.71669	N.3
  1577	2	 13.3797	 4.21884	 7.93091	C.1
  1578	2	 12.7077	 4.66419	 8.41432	C.1
  1579	2	 13.1709	 5.32904	 6.61796	C.1
  1580	2	 12.4989	  5.7744	 7.10138	C.1
  1581	2	 14.3084	 5.67976	 7.87609	C.1
  1582	2	 13.6365	 6.12512	  8.3595	C.1
  1583	1	-11.4258	 8.47613	 18.0959	N.3
  1584	2	-10.9826	 7.47019	 18.2079	C.1
  1585	2	-10.5256	 8.04545	 17.6215	C.1
  1586	2	-11.5061	 8.83424	 19.1381	C.1
  1587	2	-11.0491	  9.4095	 18.5517	C.1
  1588	2	-12.4742	 8.26106	 17.8212	C.1
  1589	2	-12.0172	 8.83632	 17.2349	C.1
  1590	1	-8.36836	-17.7426	 4.71124	N.3
  1591	2	-8.24272	-16.6592	 4.53407	C.1
  1592	2	-7.49209	 -17.095	 4.89491	C.1
  1593	2	-8.70515	-18.1217	 3.72955	C.1
  1594	2	-7.95452	-18.5575	 4.09039	C.1
  1595	2	-9.28316	-17.7931	 5.32886	C.1
  1596	2	-8.53253	 -18.229	 5.68969	C.1
  1597	1	-19.8455	 5.76714	 18.6705	N.3
  1598	2	-20.0137	 6.01635	 19.7338	C.1
  1599	2	-19.3925	 5.32831	 19.5778	C.1
  1600	2	-19.5892	 6.74287	 18.2199	C.1
  1601	2	 -18.968	 6.05483	 18.0639	C.1
  1602	2	-20.8655	 5.57426	 18.2919	C.1
  1603	2	-20.2443	 4.88622	 18.1359	C.1
  1604	1	  7.1344	 14.6629	-2.20242	N.3
  1605	2	 8.08362	 14.4253	-2.71565	C.1
  1606	2	  8.1667	 14.9672	-1.95214	C.1
  1607	2	  6.6866	 13.6683	-2.02627	C.1
  1608	2	 6.76967	 14.2102	-1.26277	C.1
  1609	2	 6.50838	 15.0822	-3.01059	C.1
  1610	2	 6.59145	 15.6242	-2.24708	C.1
  1611	1	  12.787	-9.21189	 15.8714	N.3
  1612	2	 12.7189	-8.15346	 15.5616	C.1
  1613	2	 11.8965	-8.57007	 15.7449	C.1
  1614	2	 13.4976	-9.18238	 16.7169	C.1
  1615	2	 12.6752	-9.59899	 16.9003	C.1
  1616	2	  13.378	-9.67491	 15.0608	C.1
  1617	2	 12.5555	-10.0915	 15.2441	C.1
  1618	1	-9.86439	  15.148	 19.9844	N.3
  1619	2	-8.78515	 14.9344	  20.087	C.1
  1620	2	-9.20897	 15.2371	 20.8695	C.1
  1621	2	-10.2687	 14.2096	 19.5639	C.1
  1622	2	-10.6926	 14.5124	 20.3464	C.1
  1623	2	-9.90355	 15.8458	 19.1286	C.1
  1624	2	-10.3274	 16.1485	 19.9111	C.1
  1625	1	-6.96209	 16.9928	-14.2285	N.3
  1626	2	-6.31223	 17.5364	-14.9378	C.1
  1627	2	-6.70581	 18.0668	 -14.269	C.1
  1628	2	-6.31026	 16.1799	-13.8608	C.1
  1629	2	-6.70384	 16.7103	 -13.192	C.1
  1630	2	-7.67341	 16.4664	-14.8902	C.1
  1631	2	-8.06698	 16.9968	-14.2214	C.1
  1632	1	-13.1226	-2.90223	-18.4633	N.3
  1633	2	-13.6926	-3.64015	-19.0561	C.1
  1634	2	-12.9157	-3.97246	-18.6442	C.1
  1635	2	-13.8817	-2.49199	-17.7731	C.1
  1636	2	-13.1048	-2.82431	-17.3612	C.1
  1637	2	-12.9586	-2.07608	-19.1784	C.1
  1638	2	-12.1818	-2.40839	-18.7665	C.1
  1639	1	  18.615	 4.21954	-5.41749	N.3
  1640	2	 18.6279	 3.13125	 -5.2268	C.1
  1641	2	 19.4554	 3.56502	-5.12383	C.1
  1642	2	 17.8085	 4.58252	-4.75521	C.1
  1643	2	  18.636	 5.01629	-4.65224	C.1
  1644	2	 18.1674	  4.2942	-6.42491	C.1
  1645	2	 18.9949	 4.72797	-6.32193	C.1
  1646	1	 -10.873	 4.49144	 2.62989	N.3
  1647	2	-11.3769	 4.52755	 1.64717	C.1
  1648	2	-10.4402	 4.60117	 1.61919	C.1
  1649	2	-11.2579	 3.55715	  3.0769	C.1
  1650	2	-10.3212	 3.63077	 3.04892	C.1
  1651	2	-11.3893	  5.2792	 3.20756	C.1
  1652	2	-10.4526	 5.35282	 3.17958	C.1
  1653	1	 5.65744	 3.65118	 1.94504	N.3
  1654	2	 6.75424	 3.55119	 2.03413	C.1
  1655	2	 6.46022	 4.17773	 1.39804	C.1
  1656	2	 5.33673	 3.84988	 2.98355	C.1
  1657	2	 5.04271	 4.47642	 2.34747	C.1
  1658	2	 5.32239	 2.61268	 1.77155	C.1
  1659	2	 5.02837	 3.23921	 1.13547	C.1
  1660	1	 10.4845	 -3.5562	 8.34985	N.3
  1661	2	 10.8636	-4.56639	 8.58807	C.1
  1662	2	    10.6	-4.43859	 7.69489	C.1
  1663	2	 11.2959	-2.89291	 8.69991	C.1
  1664	2	 11.0323	-2.76511	 7.80673	C.1
  1665	2	 9.68952	  -3.401	 9.10133	C.1
  1666	2	  9.4259	 -3.2732	 8.20815	C.1
  1667	1	 3.82591	 6.75757	-8.08928	N.3
  1668	2	 3.78689	 7.70892	-7.52864	C.1
  1669	2	 3.63936	  6.9357	-7.01486	C.1
  1670	2	 4.80575	 6.80408	-8.59782	C.1
  1671	2	 4.65821	 6.03086	-8.08404	C.1
  1672	2	  3.1064	 6.91954	-8.91203	C.1
  1673	2	 2.95887	 6.14632	-8.39825	C.1
  1674	1	  6.2187	-1.57474	 17.1879	N.3
  1675	2	 6.45875	-1.29993	 18.2308	C.1
  1676	2	 6.63993	-2.19318	 18.0009	C.1
  1677	2	 6.76286	-0.817263	 16.5954	C.1
  1678	2	 6.94403	-1.71052	 16.3655	C.1
  1679	2	 5.16272	-1.26713	 17.0823	C.1
  1680	2	  5.3439	-2.16039	 16.8523	C.1
  1681	1	-7.73304	-3.64688	-17.0517	N.3
  1682	2	-6.63954	-3.60785	 -16.898	C.1
  1683	2	-7.15406	-3.61161	-16.1113	C.1
  1684	2	-7.86508	-4.52897	-17.7039	C.1
  1685	2	-8.37959	-4.53273	-16.9173	C.1
  1686	2	-7.92272	-2.79817	-17.7333	C.1
  1687	2	-8.43723	-2.80194	-16.9467	C.1
  1688	1	 9.67495	-14.6852	 2.37786	N.3
  1689	2	 9.58361	-13.5906	  2.4978	C.1
  1690	2	  8.8737	-14.0926	 2.85505	C.1
  1691	2	 10.6688	-14.9044	 2.80809	C.1
  1692	2	 9.95887	-15.4064	 3.16535	C.1
  1693	2	 9.83731	-14.8076	 1.29181	C.1
  1694	2	  9.1274	-15.3096	 1.64907	C.1
  1695	1	 5.79908	 6.84153	0.615328	N.3
  1696	2	 5.80001	 5.73664	0.625589	C.1
  1697	2	 6.25961	  6.1302	-0.0937674	C.1
  1698	2	 6.18244	 7.10377	 1.61789	C.1
  1699	2	 6.64204	 7.49733	0.898532	C.1
  1700	2	 4.72539	 7.09385	0.681541	C.1
  1701	2	 5.18499	 7.48741	-0.0378155	C.1
  1702	1	-2.02643	 7.12146	 5.92847	N.3
  1703	2	-2.27524	 7.28532	 4.86445	C.1
  1704	2	-2.48194	 8.00067	 5.43816	C.1
  1705	2	-0.959169	 6.83713	 5.89742	C.1
  1706	2	-1.16586	 7.55248	 6.47114	C.1
  1707	2	-2.53485	 6.16889	 6.16296	C.1
  1708	2	-2.74154	 6.88424	 6.73668	C.1
  1709	1	-2.55356	-4.44324	-1.32023	N.3
  1710	2	-1.66385	-5.09725	-1.28023	C.1
  1711	2	-2.44179	-5.45638	-0.893651	C.1
  1712	2	-2.63466	-4.19243	-2.39325	C.1
  1713	2	-3.41259	-4.55156	-2.00667	C.1
  1714	2	-2.19527	-3.50136	-0.86708	C.1
  1715	2	-2.97321	-3.86049	-0.480496	C.1
  1716	1	 18.0031	-9.93225	  17.725	N.3
  1717	2	 18.3577	-9.22957	 18.5006	C.1
  1718	2	 17.5066	-9.04074	 18.1489	C.1
  1719	2	 18.1015	-10.9184	 18.2136	C.1
  1720	2	 17.2505	-10.7295	  17.862	C.1
  1721	2	 18.8267	-9.93205	 16.9884	C.1
  1722	2	 17.9756	-9.74322	 16.6367	C.1
  1723	1	 4.79788	-16.4636	 9.07986	N.3
  1724	2	 3.87599	-16.9385	 8.69848	C.1
  1725	2	 4.66927	-17.4146	 8.53217	C.1
  1726	2	 4.56936	-16.2891	 10.1467	C.1
  1727	2	 5.36265	-16.7651	  9.9804	C.1
  1728	2	 4.75837	-15.4491	 8.64385	C.1
  1729	2	 5.55165	-15.9252	 8.47754	C.1
  1730	1	 16.1049	-9.24059	-9.99044	N.3
  1731	2	 16.1876	 -9.6989	-10.9924	C.1
  1732	2	 16.2663	-8.76239	-10.9734	C.1
  1733	2	  16.861	-9.78784	-9.39912	C.1
  1734	2	 16.9396	-8.85133	-9.38007	C.1
  1735	2	  15.148	-9.63978	-9.60833	C.1
  1736	2	 15.2267	-8.70327	-9.58928	C.1
  1737	1	 2.36877	-9.71346	 7.29519	N.3
  1738	2	 2.65837	-8.70334	 7.63678	C.1
  1739	2	 3.30028	-9.37425	 7.78317	C.1
  1740	2	  2.0899	-9.55239	 6.23824	C.1
  1741	2	 2.73181	-10.2233	 6.38463	C.1
  1742	2	 1.39517	-9.87829	 7.79097	C.1
  1743	2	 2.03708	-10.5492	 7.93736	C.1
  1744	1	-15.4059	 5.94295	 13.6679	N.3
  1745	2	-16.2552	 5.88526	 14.3725	C.1
  1746	2	-15.7078	 5.12168	 14.3427	C.1
  1747	2	-14.8947	 6.87649	 13.9645	C.1
  1748	2	-14.3473	  6.1129	 13.9347	C.1
  1749	2	-15.8891	 6.21248	 12.7115	C.1
  1750	2	-15.3417	 5.44889	 12.6817	C.1
  1751	1	 15.4644	-11.5077	 1.52168	N.3
  1752	2	 15.1874	-11.3352	 0.46601	C.1
  1753	2	 14.4862	-11.6243	 1.02126	C.1
  1754	2	 15.9359	-10.5534	 1.81827	C.1
  1755	2	 15.2346	-10.8425	 2.37352	C.1
  1756	2	 16.3217	-12.2007	 1.44788	C.1
  1757	2	 15.6205	-12.4898	 2.00313	C.1
  1758	1	 8.98832	-6.67589	-4.76782	N.3
  1759	2	 9.51426	-6.17553	 -3.9348	C.1
  1760	2	 9.64154	-7.10541	-3.98697	C.1
  1761	2	 9.31948	 -6.1057	-5.65443	C.1
  1762	2	 9.44676	-7.03558	-5.70661	C.1
  1763	2	 7.94032	-6.35162	-4.63598	C.1
  1764	2	 8.06759	 -7.2815	-4.68815	C.1
  1765	1	-10.5605	 16.7902	  -7.966	N.3
  1766	2	-10.9659	 16.5502	-8.96546	C.1
  1767	2	-11.3027	 16.0267	-8.26112	C.1
  1768	2	-10.7429	  17.876	 -7.8734	C.1
  1769	2	-11.0797	 17.3524	-7.16906	C.1
  1770	2	-9.46739	 16.7296	-8.11564	C.1
  1771	2	-9.80416	 16.2061	 -7.4113	C.1
  1772	1	 15.9789	   19.37	 12.3745	N.3
  1773	2	 16.5654	 18.4458	 12.2242	C.1
  1774	2	 16.8897	 19.0208	 12.8934	C.1
  1775	2	 14.9522	 18.9944	 12.5346	C.1
  1776	2	 15.2764	 19.5694	 13.2038	C.1
  1777	2	 15.9326	 19.8074	 11.3609	C.1
  1778	2	 16.2569	 20.3824	 12.0301	C.1
  1779	1	 14.0097	-16.2355	-0.333586	N.3
  1780	2	  14.045	-15.3849	0.370764	C.1
  1781	2	 14.7612	-15.9899	0.438382	C.1
  1782	2	 13.9006	-15.7445	-1.31737	C.1
  1783	2	 14.6167	-16.3495	-1.24975	C.1
  1784	2	 13.0093	-16.6695	-0.155579	C.1
  1785	2	 13.7255	-17.2746	-0.0879614	C.1
  1786	1	 7.38799	-0.595717	0.0897018	N.3
  1787	2	  8.4394	-0.712381	-0.229412	C.1
  1788	2	 7.81281	-0.660963	-0.928225	C.1
  1789	2	 7.42246	 0.28516	0.755828	C.1
  1790	2	 6.79587	0.336578	0.0570154	C.1
  1791	2	 7.24201	-1.43706	0.790909	C.1
  1792	2	 6.61542	-1.38564	0.0920958	C.1
  1793	1	 9.46199	 13.0265	-18.9885	N.3
  1794	2	 8.62181	 13.2745	-19.6619	C.1
  1795	2	 9.41678	 13.0171	-20.0924	C.1
  1796	2	 9.02781	  12.269	-18.3113	C.1
  1797	2	 9.82278	 12.0116	-18.7419	C.1
  1798	2	 9.54391	 13.9219	-18.3464	C.1
  1799	2	 10.3389	 13.6646	-18.7769	C.1
  1800	1	 8.50174	-15.6097	-3.73244	N.3
  1801	2	 8.67227	 -16.554	 -4.2802	C.1
  1802	2	 9.08726	-15.7963	-4.65071	C.1
  1803	2	 8.80994	 -15.857	-2.70059	C.1
  1804	2	 9.22493	-15.0993	-3.07111	C.1
  1805	2	 7.40052	-15.5545	-3.66075	C.1
  1806	2	 7.81552	-14.7968	-4.03126	C.1
  1807	1	 7.42915	 13.2869	-18.7385	N.3
  1808	2	  6.9862	 13.6188	-17.7822	C.1
  1809	2	   7.609	 14.2119	-18.1616	C.1
  1810	2	 6.54497	   13.07	-19.3647	C.1
  1811	2	 7.16778	 13.6631	 -19.744	C.1
  1812	2	 7.82208	 12.2822	-18.4997	C.1
  1813	2	 8.44489	 12.8753	-18.8791	C.1
  1814	1	 8.17107	  3.4554	-17.7277	N.3
  1815	2	 8.16723	 2.99857	-18.7338	C.1
  1816	2	 8.35342	  2.4075	 -18.027	C.1
  1817	2	 7.18803	 3.95703	-17.6743	C.1
  1818	2	 7.37422	 3.36597	-16.9675	C.1
  1819	2	 8.87866	 4.29719	-17.8352	C.1
  1820	2	 9.06485	 3.70612	-17.1284	C.1
  1821	1	 14.9367	-5.13214	 5.18869	N.3
  1822	2	 15.7563	-5.21193	 5.92544	C.1
  1823	2	 16.0223	-4.97539	 5.05545	C.1
  1824	2	 14.2308	-4.43218	 5.67096	C.1
  1825	2	 14.4968	-4.19565	 4.80097	C.1
  1826	2	  14.424	-6.10712	 5.27465	C.1
  1827	2	   14.69	-5.87059	 4.40466	C.1
  1828	1	0.0694241	-4.50895	 2.59003	N.3
  1829	2	0.284215	-5.46852	 2.08606	C.1
  1830	2	-0.599035	-5.15929	 1.99748	C.1
  1831	2	0.846349	-3.83347	 2.18882	C.1
  1832	2	-0.0369005	-3.52424	 2.10024	C.1
  1833	2	0.402583	 -4.6887	 3.62808	C.1
  1834	2	-0.480667	-4.37947	  3.5395	C.1
  1835	1	-19.7674	-8.94939	 15.6825	N.3
  1836	2	-19.6987	-9.58332	 14.7802	C.1
  1837	2	-19.3302	-8.72293	 14.6934	C.1
  1838	2	-19.3121	-9.57859	 16.4685	C.1
  1839	2	-18.9436	 -8.7182	 16.3817	C.1
  1840	2	-20.8441	-8.97685	 15.9292	C.1
  1841	2	-20.4756	-8.11646	 15.8424	C.1
  1842	1	-10.5193	-0.739053	-1.12205	N.3
  1843	2	-9.95609	-0.489995	-0.204625	C.1
  1844	2	-9.45896	-0.452571	-1.00153	C.1
  1845	2	-11.3882	-0.0579863	-1.07774	C.1
  1846	2	-10.8911	-0.0205625	-1.87465	C.1
  1847	2	-10.9593	-1.72531	-0.888439	C.1
  1848	2	-10.4621	-1.68789	-1.68535	C.1
  1849	1	-1.96578	 -1.2226	 9.19525	N.3
  1850	2	-1.81994	-2.31393	 9.10229	C.1
  1851	2	-2.65039	-2.05012	 9.45491	C.1
  1852	2	 -1.7478	-0.851052	 8.17776	C.1
  1853	2	-2.57826	-0.587243	 8.53039	C.1
  1854	2	-1.08392	-0.898546	 9.77677	C.1
  1855	2	-1.91437	-0.634737	 10.1294	C.1
  1856	1	 1.91294	-16.2465	 17.5409	N.3
  1857	2	 2.50391	-16.0109	 18.4443	C.1
  1858	2	 2.96289	-15.9139	 17.6298	C.1
  1859	2	 1.01569	-15.6116	 17.6533	C.1
  1860	2	 1.47467	-15.5146	 16.8388	C.1
  1861	2	 1.53075	-17.2626	  17.747	C.1
  1862	2	 1.98973	-17.1656	 16.9324	C.1
  1863	1	 18.5107	 3.23544	  6.9809	N.3
  1864	2	 17.8799	 2.39062	 7.31142	C.1
  1865	2	 18.5853	  2.6137	 7.89128	C.1
  1866	2	 17.7778	 4.04232	 6.80013	C.1
  1867	2	 18.4832	  4.2654	 7.37999	C.1
  1868	2	 18.8163	 2.93875	 5.96137	C.1
  1869	2	 19.5217	 3.16183	 6.54122	C.1
  1870	1	 8.80139	-9.43643	-1.99588	N.3
  1871	2	 9.52849	 -10.124	-1.52742	C.1
  1872	2	 8.98071	-9.65169	-0.927042	C.1
  1873	2	 8.26452	-10.0855	-2.71099	C.1
  1874	2	 7.71674	-9.61314	-2.11062	C.1
  1875	2	 9.43283	 -8.8083	-2.64978	C.1
  1876	2	 8.88505	-8.33598	 -2.0494	C.1
  1877	1	-17.8126	 13.0016	-0.985462	N.3
  1878	2	-18.7407	 13.6005	-1.01407	C.1
  1879	2	-18.8659	 12.6728	-0.92902	C.1
  1880	2	-17.2321	 13.4739	-0.172582	C.1
  1881	2	-17.3574	 12.5462	-0.0875297	C.1
  1882	2	 -17.277	 13.3219	-1.89731	C.1
  1883	2	-17.4023	 12.3941	-1.81226	C.1
  1884	1	-4.71506	-1.16664	 2.65055	N.3
  1885	2	 -4.6875	-0.774036	 1.61808	C.1
  1886	2	-3.92077	-1.24689	 1.88664	C.1
  1887	2	-5.65652	-1.74444	 2.67604	C.1
  1888	2	-4.88978	-2.21729	  2.9446	C.1
  1889	2	-4.95126	-0.272175	  3.2547	C.1
  1890	2	-4.18452	-0.745025	 3.52326	C.1
  1891	1	-7.19524	 19.3514	 -3.8715	N.3
  1892	2	-6.63797	 20.1567	-3.35976	C.1
  1893	2	 -7.3954	 20.4376	-3.84037	C.1
  1894	2	 -7.3948	 18.6277	-3.06075	C.1
  1895	2	-8.15223	 18.9086	-3.54136	C.1
  1896	2	-6.41679	 18.8484	-4.47306	C.1
  1897	2	-7.17422	 19.1293	-4.95367	C.1
  1898	1	-9.08535	-14.5891	-13.7171	N.3
  1899	2	-8.07817	-14.1375	-13.7673	C.1
  1900	2	-8.19121	-14.7894	-13.0996	C.1
  1901	2	-9.25648	-14.9403	-14.7507	C.1
  1902	2	-9.36952	-15.5923	 -14.083	C.1
  1903	2	-9.75183	-13.7117	-13.6349	C.1
  1904	2	-9.86487	-14.3636	-12.9672	C.1
  1905	1	-10.1861	-0.261618	 15.2846	N.3
  1906	2	-10.3312	-1.30743	 14.9589	C.1
  1907	2	-11.0491	-0.934453	 15.4375	C.1
  1908	2	-9.92433	0.260999	  14.347	C.1
  1909	2	-10.6422	0.633976	 14.8256	C.1
  1910	2	-9.22587	-0.297888	 15.8301	C.1
  1911	2	-9.94378	0.0750897	 16.3087	C.1
  1912	1	 12.2435	0.0964363	 12.3595	N.3
  1913	2	 12.0989	0.515381	 11.3473	C.1
  1914	2	 12.9563	0.170264	 11.5185	C.1
  1915	2	  11.417	-0.630946	 12.4523	C.1
  1916	2	 12.2744	-0.976064	 12.6234	C.1
  1917	2	 11.9285	 0.92255	 13.0222	C.1
  1918	2	 12.7859	0.577433	 13.1933	C.1
  1919	1	 4.73968	 9.04326	 15.7027	N.3
  1920	2	 5.42629	 8.18003	 15.7684	C.1
  1921	2	 5.34142	 8.68428	 16.5571	C.1
  1922	2	 3.80227	 8.59262	 15.3298	C.1
  1923	2	  3.7174	 9.09687	 16.1186	C.1
  1924	2	 5.11778	 9.60074	 14.8269	C.1
  1925	2	 5.03291	  10.105	 15.6156	C.1
  1926	1	 -0.3359	-18.1734	-12.4402	N.3
  1927	2	-0.775633	-18.5187	-13.3932	C.1
  1928	2	-0.201297	-17.7779	-13.4631	C.1
  1929	2	0.125917	-19.0889	-12.0286	C.1
  1930	2	0.700253	 -18.348	-12.0985	C.1
  1931	2	-1.21949	-18.0237	-11.7938	C.1
  1932	2	-0.645153	-17.2829	-11.8638	C.1
  1933	1	-10.8659	-18.5892	 13.6718	N.3
  1934	2	-11.7444	-18.5364	 13.0036	C.1
  1935	2	-11.6162	-17.7864	 13.5556	C.1
  1936	2	-10.0343	-18.8102	 12.9786	C.1
  1937	2	-9.90614	-18.0602	 13.5306	C.1
  1938	2	-11.0112	-19.5459	  14.205	C.1
  1939	2	-10.8831	-18.7959	  14.757	C.1
  1940	1	 15.6507	 5.75018	0.293006	N.3
  1941	2	 15.2456	 5.74134	 1.32098	C.1
  1942	2	 14.6584	 6.06588	 0.66259	C.1
  1943	2	 15.9917	 4.70938	0.146905	C.1
  1944	2	 15.4045	 5.03393	-0.511481	C.1
  1945	2	 16.5956	 6.31301	0.398717	C.1
  1946	2	 16.0084	 6.63755	-0.259668	C.1
  1947	1	 13.9387	-4.98536	 10.4878	N.3
  1948	2	  13.203	-5.76657	 10.2244	C.1
  1949	2	 14.1022	-6.03949	 10.1997	C.1
  1950	2	 13.5837	-4.62501	 11.4701	C.1
  1951	2	 14.4828	-4.89793	 11.4455	C.1
  1952	2	 13.6807	-4.15514	 9.80592	C.1
  1953	2	 14.5799	-4.42806	 9.78128	C.1
  1954	1	-0.851968	  3.7123	-11.9113	N.3
  1955	2	0.0489339	 3.63316	-12.5462	C.1
  1956	2	0.084976	 3.15248	-11.7392	C.1
  1957	2	-1.66942	  3.4215	-12.5955	C.1
  1958	2	-1.63337	 2.94082	-11.7885	C.1
  1959	2	-0.989486	 4.80325	-11.8029	C.1
  1960	2	-0.953444	 4.32257	-10.9959	C.1
  1961	1	 2.21298	-10.5822	 -11.462	N.3
  1962	2	 3.20402	-10.5177	-11.9463	C.1
  1963	2	 3.20596	-10.8781	-11.0782	C.1
  1964	2	 1.60678	-11.1377	-12.2001	C.1
  1965	2	 1.60872	-11.4981	 -11.332	C.1
  1966	2	 1.82522	-9.55067	-11.5418	C.1
  1967	2	 1.82716	-9.91108	-10.6736	C.1
  1968	1	 13.3022	 11.6684	-16.0286	N.3
  1969	2	 13.7146	 10.6446	-15.9773	C.1
  1970	2	 14.0626	 11.2479	 -15.346	C.1
  1971	2	 12.2111	 11.5044	-15.9702	C.1
  1972	2	 12.5591	 12.1077	 -15.339	C.1
  1973	2	 13.4589	 11.9512	-17.0852	C.1
  1974	2	 13.8069	 12.5545	-16.4539	C.1
  1975	1	-19.8414	 12.5953	 8.86265	N.3
  1976	2	-19.6415	 13.2641	 8.00608	C.1
  1977	2	-19.3975	 12.3655	 7.87728	C.1
  1978	2	-20.9129	  12.766	 9.07166	C.1
  1979	2	-20.6688	 11.8674	 8.94286	C.1
  1980	2	 -19.336	 13.1038	  9.7034	C.1
  1981	2	-19.0919	 12.2052	 9.57461	C.1
  1982	1	-4.32148	 16.5057	-4.76949	N.3
  1983	2	-5.05956	 15.9546	-4.15924	C.1
  1984	2	-4.99714	 16.8746	-3.97683	C.1
  1985	2	-4.60912	 16.2504	-5.80532	C.1
  1986	2	 -4.5467	 17.1704	 -5.6229	C.1
  1987	2	 -3.3894	 15.9321	-4.61753	C.1
  1988	2	-3.32698	 16.8521	-4.43512	C.1
  1989	1	0.0517783	-5.59857	 -15.646	N.3
  1990	2	0.0871355	 -5.3582	-16.7239	C.1
  1991	2	0.695346	-6.01669	-16.4409	C.1
  1992	2	 -1.0133	-5.83808	-15.4754	C.1
  1993	2	-0.405088	-6.49657	-15.1925	C.1
  1994	2	0.169182	-4.61168	-15.1632	C.1
  1995	2	0.777393	-5.27017	-14.8802	C.1
  1996	1	-0.434707	 18.6057	 11.8354	N.3
  1997	2	-0.568417	 17.5135	 11.9361	C.1
  1998	2	-0.366175	 17.9669	 12.7343	C.1
  1999	2	-1.36478	 18.9289	  11.334	C.1
  2000	2	-1.16254	 19.3823	 12.1323	C.1
  2001	2	0.325715	 18.6948	 11.0387	C.1
  2002	2	0.527956	 19.1481	  11.837	C.1
  2003	1	-12.6882	 1.35948	 6.82244	N.3
  2004	2	-12.4195	  2.3598	 7.20724	C.1
  2005	2	-12.0515	 1.63671	  7.6819	C.1
  2006	2	-12.4048	 1.41461	 5.75591	C.1
  2007	2	-12.0368	0.691522	 6.23057	C.1
  2008	2	-13.7923	 1.38865	 6.79218	C.1
  2009	2	-13.4243	0.665563	 7.26684	C.1
  2010	1	-16.1682	0.791233	 12.1331	N.3
  2011	2	-16.7264	0.224181	 12.8997	C.1
  2012	2	-15.8962	 0.56467	 13.1798	C.1
  2013	2	-16.8985	 1.54978	 11.7983	C.1
  2014	2	-16.0683	 1.89027	 12.0784	C.1
  2015	2	 -16.125	   0.089	 11.2811	C.1
  2016	2	-15.2947	 0.42949	 11.5611	C.1
  2017	1	-14.4506	  12.313	-6.16607	N.3
  2018	2	-14.4496	 13.3907	-5.92238	C.1
  2019	2	-15.2738	 13.0483	-6.21749	C.1
  2020	2	-14.0492	 11.8462	-5.24859	C.1
  2021	2	-14.8733	 11.5038	 -5.5437	C.1
  2022	2	-13.6169	 12.2157	-6.88457	C.1
  2023	2	-14.4411	 11.8733	-7.17968	C.1
  2024	1	-12.6861	 18.8448	 2.12597	N.3
  2025	2	-12.5232	 18.3121	 1.17176	C.1
  2026	2	-12.1588	 17.8937	 1.93057	C.1
  2027	2	-13.7811	 18.9908	 2.14997	C.1
  2028	2	-13.4168	 18.5724	 2.90879	C.1
  2029	2	-12.3006	 19.8592	 1.91796	C.1
  2030	2	-11.9363	 19.4408	 2.67678	C.1
  2031	1	 6.27394	 17.7947	-1.49432	N.3
  2032	2	 6.46379	 17.3474	-0.50195	C.1
  2033	2	  5.7512	 16.9667	-0.982416	C.1
  2034	2	 7.25953	 17.7364	-1.99039	C.1
  2035	2	 6.54693	 17.3557	-2.47085	C.1
  2036	2	  6.1674	 18.8713	-1.26994	C.1
  2037	2	  5.4548	 18.4906	 -1.7504	C.1
  2038	1	-16.4213	-0.541054	0.307412	N.3
  2039	2	 -15.771	-0.483908	 1.19893	C.1
  2040	2	 -15.322	-0.621522	0.384669	C.1
  2041	2	-17.0131	0.390193	0.366269	C.1
  2042	2	 -16.564	 0.25258	-0.447992	C.1
  2043	2	-17.1534	-1.32303	0.578429	C.1
  2044	2	-16.7043	-1.46064	-0.235832	C.1
  2045	1	  6.0707	 8.84128	 3.24315	N.3
  2046	2	 6.05282	 7.80084	 3.61472	C.1
  2047	2	  5.8123	 7.90731	 2.71227	C.1
  2048	2	 7.08861	 9.18444	 3.50191	C.1
  2049	2	  6.8481	 9.29091	 2.59946	C.1
  2050	2	 5.43145	 9.37885	 3.96649	C.1
  2051	2	 5.19094	 9.48532	 3.06404	C.1
  2052	1	 8.22654	 11.7025	 -12.379	N.3
  2053	2	 8.93468	 11.1016	-12.9776	C.1
  2054	2	 9.26993	 11.4144	 -12.157	C.1
  2055	2	  7.3393	 11.0481	-12.3054	C.1
  2056	2	 7.67455	 11.3609	-11.4848	C.1
  2057	2	 7.90276	 12.4885	-13.0848	C.1
  2058	2	 8.23801	 12.8014	-12.2642	C.1
  2059	1	  10.428	-1.68826	 12.4685	N.3
  2060	2	 9.58169	 -1.8021	 13.1696	C.1
  2061	2	 10.4251	-2.02119	 13.5221	C.1
  2062	2	 10.3232	-0.647394	 12.1129	C.1
  2063	2	 11.1666	-0.866485	 12.4653	C.1
  2064	2	 10.1141	-2.28665	 11.5943	C.1
  2065	2	 10.9575	-2.50574	 11.9467	C.1
  2066	1	 12.6291	 5.16861	 3.32478	N.3
  2067	2	 12.5131	 4.11442	 3.63484	C.1
  2068	2	  13.012	 4.65164	  4.2231	C.1
  2069	2	 11.5881	 5.49816	 3.15574	C.1
  2070	2	  12.087	 6.03538	   3.744	C.1
  2071	2	 13.0376	 5.08742	 2.30138	C.1
  2072	2	 13.5365	 5.62464	 2.88964	C.1
  2073	1	-1.95123	-4.13874	-12.5301	N.3
  2074	2	-1.15566	-4.45011	-11.8294	C.1
  2075	2	-1.06762	-4.77848	-12.7057	C.1
  2076	2	-1.95168	-3.03761	-12.4386	C.1
  2077	2	-1.86364	-3.36598	 -13.315	C.1
  2078	2	-2.87843	-4.43595	-12.0077	C.1
  2079	2	-2.79038	-4.76431	-12.8841	C.1
  2080	1	-16.0475	 15.5627	-12.0426	N.3
  2081	2	-15.2256	 16.1426	   -12.5	C.1
  2082	2	-15.4105	 16.3508	-11.6022	C.1
  2083	2	-15.7525	 14.5147	-12.2309	C.1
  2084	2	-15.9373	 14.7229	-11.3331	C.1
  2085	2	-16.8872	 15.7185	-12.7437	C.1
  2086	2	 -17.072	 15.9268	-11.8459	C.1
  2087	1	-15.1593	-0.961444	 4.55989	N.3
  2088	2	-15.1719	-0.145514	 3.81491	C.1
  2089	2	-15.5986	0.0500349	  4.6293	C.1
  2090	2	-14.0866	-1.21375	 4.64013	C.1
  2091	2	-14.5134	-1.01821	 5.45452	C.1
  2092	2	-15.5794	-1.81839	 4.00305	C.1
  2093	2	-16.0061	-1.62284	 4.81744	C.1
  2094	1	 6.74084	  -8.995	 14.9029	N.3
  2095	2	 7.57936	-8.38886	 14.5151	C.1
  2096	2	 7.32497	-8.19968	    15.4	C.1
  2097	2	 7.07411	-10.0327	 14.7212	C.1
  2098	2	 6.81972	-9.84351	 15.6062	C.1
  2099	2	 5.95062	-8.84722	 14.1448	C.1
  2100	2	 5.69623	-8.65804	 15.0298	C.1
  2101	1	 3.96352	-12.6668	-12.4434	N.3
  2102	2	 2.88036	-12.4547	-12.3917	C.1
  2103	2	 3.21818	-12.9831	-11.6915	C.1
  2104	2	 4.41373	-11.6618	-12.5331	C.1
  2105	2	 4.75155	-12.1902	-11.8329	C.1
  2106	2	 4.08974	-13.0914	-13.4557	C.1
  2107	2	 4.42756	-13.6198	-12.7555	C.1
  2108	1	-7.24591	 19.0611	 14.1199	N.3
  2109	2	-7.15601	 18.5863	 13.1262	C.1
  2110	2	-6.39781	  19.063	 13.4117	C.1
  2111	2	-7.54795	 18.2232	 14.7738	C.1
  2112	2	-6.78975	 18.6999	 15.0592	C.1
  2113	2	-8.17108	 19.6587	 14.0316	C.1
  2114	2	-7.41288	 20.1354	  14.317	C.1
  2115	1	-18.7557	 8.09576	-4.02729	N.3
  2116	2	-18.3562	 9.11909	-4.14607	C.1
  2117	2	-19.1719	 9.05958	 -3.6827	C.1
  2118	2	-17.9134	 7.54744	-3.56832	C.1
  2119	2	-18.7291	 7.48794	-3.10496	C.1
  2120	2	 -18.774	 7.71002	-5.06253	C.1
  2121	2	-19.5897	 7.65052	-4.59917	C.1
  2122	1	-19.8002	 18.6347	 11.2404	N.3
  2123	2	 -20.513	 18.2811	 10.4737	C.1
  2124	2	-20.8518	 18.9266	 11.0672	C.1
  2125	2	-18.9272	 18.9564	 10.6445	C.1
  2126	2	-19.2659	 19.6018	  11.238	C.1
  2127	2	-19.4524	 17.6984	 11.7129	C.1
  2128	2	-19.7911	 18.3439	 12.3064	C.1
  2129	1	 9.42078	 8.83947	  15.744	N.3
  2130	2	 10.2025	 8.90482	 16.5221	C.1
  2131	2	 10.5036	 8.63063	 15.6749	C.1
  2132	2	 8.94965	 9.83844	 15.7747	C.1
  2133	2	 9.25074	 9.56425	 14.9275	C.1
  2134	2	 8.65853	 8.18643	 16.2059	C.1
  2135	2	 8.95963	 7.91224	 15.3587	C.1
  2136	1	 5.86971	 1.71671	-8.55397	N.3
  2137	2	 6.67648	 2.39729	-8.22713	C.1
  2138	2	 6.96156	 1.55066	-8.51962	C.1
  2139	2	 5.32404	 2.31463	-9.30604	C.1
  2140	2	 5.60912	   1.468	-9.59853	C.1
  2141	2	 5.18097	 1.70815	-7.69001	C.1
  2142	2	 5.46605	0.861525	 -7.9825	C.1
  2143	1	-16.8629	 7.30665	  18.662	N.3
  2144	2	-16.5514	 7.06322	 17.6302	C.1
  2145	2	-16.9376	   7.913	 17.7413	C.1
  2146	2	-15.9462	 7.12621	 19.2518	C.1
  2147	2	-16.3323	   7.976	 19.3629	C.1
  2148	2	-17.5119	 6.45585	 18.9373	C.1
  2149	2	-17.8981	 7.30564	 19.0484	C.1
  2150	1	 10.8302	 11.0533	-14.5662	N.3
  2151	2	 10.7172	 12.1461	-14.6846	C.1
  2152	2	 11.3292	 11.7414	-15.2722	C.1
  2153	2	   9.792	 10.6825	-14.6403	C.1
  2154	2	  10.404	 10.2779	-15.2279	C.1
  2155	2	 11.0634	 10.9384	-13.4923	C.1
  2156	2	 11.6754	 10.5337	  -14.08	C.1
  2157	1	-19.4495	 15.7263	 17.5378	N.3
  2158	2	-19.5341	 15.8368	 16.4417	C.1
  2159	2	-19.2186	 16.5963	  16.897	C.1
  2160	2	-18.8305	 14.8184	 17.6532	C.1
  2161	2	-18.5151	 15.5778	 18.1085	C.1
  2162	2	-20.4572	 15.3845	 17.8357	C.1
  2163	2	-20.1417	  16.144	  18.291	C.1
  2164	1	-3.44153	 19.9904	-7.03646	N.3
  2165	2	-2.39534	 19.6609	-7.16982	C.1
  2166	2	-2.64101	 20.4217	-7.66419	C.1
  2167	2	-3.53682	 20.0912	-5.94028	C.1
  2168	2	 -3.7825	  20.852	-6.43464	C.1
  2169	2	-4.02393	 19.0779	-7.25772	C.1
  2170	2	-4.26961	 19.8387	-7.75209	C.1
  2171	1	 7.36154	 -16.574	 15.0633	N.3
  2172	2	 7.10947	-15.6156	 14.5745	C.1
  2173	2	 7.05778	 -16.373	 14.0201	C.1
  2174	2	 6.69583	-16.5907	  15.945	C.1
  2175	2	 6.64414	 -17.348	 15.3906	C.1
  2176	2	 8.35687	-16.3797	 15.5019	C.1
  2177	2	 8.30518	 -17.137	 14.9475	C.1
  2178	1	 12.4046	-18.6199	  19.695	N.3
  2179	2	 11.8397	-17.8606	 19.1246	C.1
  2180	2	 12.0075	-17.6424	 20.0234	C.1
  2181	2	 13.3045	-18.7836	 19.0752	C.1
  2182	2	 13.4723	-18.5654	  19.974	C.1
  2183	2	 11.8178	-19.5427	 19.5371	C.1
  2184	2	 11.9856	-19.3244	 20.4359	C.1
  2185	1	 16.8513	-7.52622	 10.7486	N.3
  2186	2	 16.7066	 -8.3418	 11.4799	C.1
  2187	2	 17.6017	-8.10664	 11.3151	C.1
  2188	2	 16.2177	-6.71373	 11.1477	C.1
  2189	2	 17.1127	-6.47857	 10.9829	C.1
  2190	2	 16.2869	-7.87587	 9.86533	C.1
  2191	2	  17.182	-7.64071	 9.70052	C.1
  2192	1	 6.99961	-4.14636	0.282783	N.3
  2193	2	 7.18081	-4.83636	 1.12656	C.1
  2194	2	 7.00226	  -3.946	 1.36941	C.1
  2195	2	 6.19643	-4.64846	-0.286108	C.1
  2196	2	 6.01788	-3.75809	-0.0432637	C.1
  2197	2	 7.88943	-4.28979	-0.356371	C.1
  2198	2	 7.71088	-3.39943	-0.113526	C.1
  2199	1	 5.86381	 3.00012	-2.93764	N.3
  2200	2	  6.1572	 3.76156	-2.19263	C.1
  2201	2	 5.70397	 3.01527	-1.84443	C.1
  2202	2	 6.81353	 2.77392	-3.45508	C.1
  2203	2	  6.3603	 2.02764	-3.10688	C.1
  2204	2	 5.30056	 3.58431	-3.68753	C.1
  2205	2	 4.84733	 2.83802	-3.33932	C.1
  2206	1	-10.2739	 14.3912	 6.21521	N.3
  2207	2	-9.22006	 14.3678	 5.88402	C.1
  2208	2	-9.37828	 14.0122	 6.73965	C.1
  2209	2	-10.8092	 13.8871	 5.39039	C.1
  2210	2	-10.9674	 13.5315	 6.24602	C.1
  2211	2	-10.5553	 15.4521	 6.08777	C.1
  2212	2	-10.7135	 15.0965	  6.9434	C.1
  2213	1	 8.69085	-18.3915	-2.49987	N.3
  2214	2	 8.12675	-17.9314	-3.33112	C.1
  2215	2	 7.69747	-18.6523	-2.90739	C.1
  2216	2	 8.92237	-17.5319	 -1.8454	C.1
  2217	2	 8.49308	-18.2528	-1.42167	C.1
  2218	2	 9.66735	-18.6298	-2.95868	C.1
  2219	2	 9.23806	-19.3508	-2.53495	C.1
  2220	1	 12.5831	-12.8625	-10.4527	N.3
  2221	2	 12.7123	-13.8607	-9.99684	C.1
  2222	2	 13.5092	-13.4284	-10.2453	C.1
  2223	2	 11.9677	-12.3234	-9.71012	C.1
  2224	2	 12.7645	-11.8911	-9.95854	C.1
  2225	2	 11.8739	 -13.052	-11.2786	C.1
  2226	2	 12.6708	-12.6196	-11.5271	C.1
  2227	1	-6.54633	 14.5868	-16.6459	N.3
  2228	2	-6.44661	 13.4986	-16.4819	C.1
  2229	2	-6.21307	 13.7964	-17.3424	C.1
  2230	2	-5.95372	 15.0218	-15.8211	C.1
  2231	2	-5.72017	 15.3196	-16.6815	C.1
  2232	2	-7.58897	 14.7932	 -16.344	C.1
  2233	2	-7.35543	 15.0909	-17.2045	C.1
  2234	1	-3.96783	 10.6116	 -19.437	N.3
  2235	2	-4.56998	 11.3496	-18.8769	C.1
  2236	2	-4.86797	 11.1707	-19.7502	C.1
  2237	2	-3.94473	 9.73857	-18.7601	C.1
  2238	2	-4.24271	 9.55963	-19.6335	C.1
  2239	2	-2.94182	 11.0151	-19.3638	C.1
  2240	2	 -3.2398	 10.8362	-20.2372	C.1
  2241	1	-7.16507	-14.3233	-3.46868	N.3
  2242	2	-6.34129	-14.8174	-2.92265	C.1
  2243	2	-7.04062	-15.3854	-3.19073	C.1
  2244	2	-6.64468	-13.7985	-4.29008	C.1
  2245	2	-7.34401	-14.3666	-4.55816	C.1
  2246	2	-7.46025	-13.5018	 -2.7912	C.1
  2247	2	-8.15958	-14.0699	-3.05928	C.1
  2248	1	 5.31258	-11.3683	 19.2243	N.3
  2249	2	 6.20835	 -10.731	 19.3352	C.1
  2250	2	 6.09903	-11.1231	 18.4879	C.1
  2251	2	 4.48925	-10.7048	 19.5449	C.1
  2252	2	 4.37993	 -11.097	 18.6976	C.1
  2253	2	 5.40414	-12.0809	 20.0638	C.1
  2254	2	 5.29481	-12.4731	 19.2165	C.1
  2255	1	-18.6593	 6.10379	 -10.038	N.3
  2256	2	-19.5646	 5.85739	-9.45441	C.1
  2257	2	-18.8399	 6.18099	-8.95069	C.1
  2258	2	-19.0385	 6.79404	 -10.813	C.1
  2259	2	-18.3138	 7.11765	-10.3093	C.1
  2260	2	-18.4618	 5.17453	-10.6022	C.1
  2261	2	-17.7372	 5.49813	-10.0985	C.1
  2262	1	 4.46359	-7.44299	-11.6963	N.3
  2263	2	  3.6613	-7.73888	-12.3961	C.1
  2264	2	 4.48534	-8.17199	-12.5264	C.1
  2265	2	 4.00301	-7.59775	 -10.704	C.1
  2266	2	 4.82705	-8.03086	-10.8343	C.1
  2267	2	 4.49041	-6.34267	-11.7935	C.1
  2268	2	 5.31445	-6.77578	-11.9238	C.1
  2269	1	 19.2685	-7.40645	 16.6945	N.3
  2270	2	 19.9187	-7.76737	 17.5117	C.1
  2271	2	 20.2176	-6.98948	 17.0768	C.1
  2272	2	 18.2781	-7.32384	 17.1774	C.1
  2273	2	 18.5771	-6.54595	 16.7425	C.1
  2274	2	 19.1603	-8.29498	 16.0467	C.1
  2275	2	 19.4592	-7.51709	 15.6118	C.1
  2276	1	 -9.9682	  4.5983	-9.16935	N.3
  2277	2	-10.1565	 3.76065	 -8.4738	C.1
  2278	2	 -9.6223	 3.55003	-9.21805	C.1
  2279	2	-9.56538	 5.38831	 -8.5102	C.1
  2280	2	-9.03122	 5.17768	-9.25446	C.1
  2281	2	 -10.984	 4.96189	-9.40768	C.1
  2282	2	-10.4499	 4.75126	-10.1519	C.1
  2283	1	 6.13418	-7.62046	-4.69364	N.3
  2284	2	 6.59638	-8.60932	-4.52208	C.1
  2285	2	 5.68707	-8.54763	-4.29195	C.1
  2286	2	 6.36567	-7.41401	-5.75414	C.1
  2287	2	 5.45636	-7.35232	-5.52401	C.1
  2288	2	 6.80446	-6.93059	 -4.1499	C.1
  2289	2	 5.89516	 -6.8689	-3.91977	C.1
  2290	1	-13.5678	-16.1974	-3.23174	N.3
  2291	2	-12.6749	-15.7319	-3.68667	C.1
  2292	2	-12.5148	-16.2167	-2.89738	C.1
  2293	2	 -13.999	 -16.783	-4.06366	C.1
  2294	2	-13.8389	-17.2677	-3.27437	C.1
  2295	2	-14.2696	-15.3503	-3.12883	C.1
  2296	2	-14.1096	 -15.835	-2.33954	C.1
  2297	1	-3.06281	 2.44384	 10.2761	N.3
  2298	2	-3.35935	 2.67595	 9.23726	C.1
  2299	2	 -2.4329	 2.66645	 9.39596	C.1
  2300	2	-3.58453	 1.49163	 10.4809	C.1
  2301	2	-2.65808	 1.48213	 10.6396	C.1
  2302	2	-3.63422	 3.17818	 10.8719	C.1
  2303	2	-2.70776	 3.16868	 11.0306	C.1
  2304	1	-13.3376	-3.98851	 6.05357	N.3
  2305	2	-14.4132	-4.22245	 6.14952	C.1
  2306	2	-13.9439	-4.15861	 6.96149	C.1
  2307	2	-13.3324	-3.07332	  5.4345	C.1
  2308	2	-12.8631	-3.00948	 6.24647	C.1
  2309	2	-12.9711	-4.76553	 5.35874	C.1
  2310	2	-12.5018	-4.70169	 6.17071	C.1
  2311	1	-11.5169	-2.33358	-6.98952	N.3
  2312	2	-12.5085	-2.13821	-6.54281	C.1
  2313	2	-12.3576	-1.72935	-7.37568	C.1
  2314	2	-11.4525	-3.43662	-6.98888	C.1
  2315	2	-11.3016	-3.02776	-7.82175	C.1
  2316	2	-10.8162	 -2.0392	-6.18758	C.1
  2317	2	-10.6653	-1.63034	-7.02044	C.1
  2318	1	-3.94586	 14.9853	-12.5525	N.3
  2319	2	-4.24857	 14.5211	-13.5084	C.1
  2320	2	-4.66603	   15.34	-13.3117	C.1
  2321	2	-2.84432	 15.0257	 -12.629	C.1
  2322	2	-3.26178	 15.8446	-12.4323	C.1
  2323	2	-4.11849	 14.1807	-11.8151	C.1
  2324	2	-4.53595	 14.9996	-11.6185	C.1
  2325	1	-15.3458	-18.6774	-12.2106	N.3
  2326	2	-16.3677	 -18.448	-11.8585	C.1
  2327	2	-15.9818	-19.2214	-11.4892	C.1
  2328	2	-14.7954	-17.7391	 -12.017	C.1
  2329	2	-14.4094	-18.5126	-11.6477	C.1
  2330	2	-15.4532	-18.6848	-13.3103	C.1
  2331	2	-15.0673	-19.4583	 -12.941	C.1
  2332	1	-9.55185	 7.25552	-18.8252	N.3
  2333	2	-9.19637	 6.35156	-19.3518	C.1
  2334	2	-10.1282	 6.41055	-19.2432	C.1
  2335	2	 -9.0926	 8.07982	   -19.4	C.1
  2336	2	-10.0244	  8.1388	-19.2914	C.1
  2337	2	-8.96883	  7.2467	-17.8866	C.1
  2338	2	-9.90066	 7.30568	-17.7779	C.1
  2339	1	 5.29005	-12.9868	0.0176224	N.3
  2340	2	 4.35813	-12.4146	-0.140427	C.1
  2341	2	 4.36613	-12.9627	0.623164	C.1
  2342	2	 6.07275	-12.2074	-0.00964621	C.1
  2343	2	 6.08075	-12.7555	0.753945	C.1
  2344	2	 5.42729	-13.5162	-0.942447	C.1
  2345	2	 5.43529	-14.0644	-0.178856	C.1
  2346	1	-18.7698	  -18.59	 -13.845	N.3
  2347	2	 -18.997	-17.9156	-12.9998	C.1
  2348	2	 -19.161	-18.8271	-12.8392	C.1
  2349	2	-17.7236	-18.3377	-14.0953	C.1
  2350	2	-17.8876	-19.2492	-13.9347	C.1
  2351	2	-19.3428	-18.1495	-14.6807	C.1
  2352	2	-19.5068	-19.0611	-14.5202	C.1
  2353	1	 -9.7496	 14.7035	 1.33199	N.3
  2354	2	-9.72782	 14.3028	 2.36147	C.1
  2355	2	-9.61475	  13.664	 1.68125	C.1
  2356	2	-8.98826	 15.5039	 1.35634	C.1
  2357	2	 -8.8752	 14.8651	0.676117	C.1
  2358	2	-10.7023	 15.2622	  1.2985	C.1
  2359	2	-10.5893	 14.6233	0.618275	C.1
  2360	1	 2.64798	-10.8034	 1.33571	N.3
  2361	2	 1.67779	-10.7992	 1.86449	C.1
  2362	2	 1.84356	-10.0459	 1.32716	C.1
  2363	2	 2.63972	-11.7699	0.800402	C.1
  2364	2	 2.80549	-11.0167	0.263074	C.1
  2365	2	 3.37778	-10.9709	 2.14823	C.1
  2366	2	 3.54355	-10.2176	  1.6109	C.1
  2367	1	 1.19431	-17.3985	-19.9612	N.3
  2368	2	 1.19393	-17.5067	-18.8616	C.1
  2369	2	 1.43804	-18.2786	-19.3392	C.1
  2370	2	 1.84103	-16.5183	-20.1282	C.1
  2371	2	 2.08515	-17.2902	-20.6058	C.1
  2372	2	0.181787	-17.0125	-20.1774	C.1
  2373	2	  0.4259	-17.7845	-20.6551	C.1
  2374	1	 13.4314	 -7.8042	 9.46109	N.3
  2375	2	 12.6594	-7.58779	 8.70077	C.1
  2376	2	 13.0701	-6.83205	 9.07992	C.1
  2377	2	 14.1143	-8.49726	  8.9375	C.1
  2378	2	  14.525	-7.74151	 9.31665	C.1
  2379	2	 12.9044	-8.46118	 10.1763	C.1
  2380	2	 13.3151	-7.70544	 10.5554	C.1
  2381	1	-4.52215	 1.57467	-8.95444	N.3
  2382	2	-4.31031	 1.11606	-7.97174	C.1
  2383	2	 -4.4587	 2.04414	-7.95621	C.1
  2384	2	-5.36357	0.970533	-9.33901	C.1
  2385	2	-5.51196	 1.89862	-9.32348	C.1
  2386	2	-3.66999	 1.24528	-9.57588	C.1
  2387	2	-3.81838	 2.17336	-9.56035	C.1
  2388	1	-0.50574	-9.19057	-12.3786	N.3
  2389	2	-1.22238	-9.99579	-12.6214	C.1
  2390	2	-1.40381	-9.16491	-13.0218	C.1
  2391	2	 0.47154	 -9.6349	  -12.64	C.1
  2392	2	0.290112	-8.80402	-13.0404	C.1
  2393	2	-0.494238	-9.18735	-11.2737	C.1
  2394	2	-0.675666	-8.35647	-11.6741	C.1
  2395	1	-1.20941	 -12.845	-7.21095	N.3
  2396	2	-1.95099	-13.0553	-8.00261	C.1
  2397	2	-2.16538	 -13.396	-7.15318	C.1
  2398	2	-1.09093	-11.7476	-7.26092	C.1
  2399	2	-1.30532	-12.0883	 -6.4115	C.1
  2400	2	-0.264715	-13.2209	-7.64346	C.1
  2401	2	-0.479104	-13.5617	-6.79403	C.1
  2402	1	-13.5842	-11.8605	-6.53386	N.3
  2403	2	 -13.177	-11.6388	-5.53089	C.1
  2404	2	-13.3873	-10.8856	-6.05255	C.1
  2405	2	-14.4326	-12.5349	-6.31864	C.1
  2406	2	-14.6428	-11.7818	 -6.8403	C.1
  2407	2	-12.8275	-12.5377	-6.96958	C.1
  2408	2	-13.0378	-11.7845	-7.49123	C.1
  2409	1	 9.77961	-4.38259	 -18.543	N.3
  2410	2	 9.49975	-5.05286	-17.7103	C.1
  2411	2	 9.37177	-5.40913	-18.5707	C.1
  2412	2	 10.8201	-4.10026	-18.3012	C.1
  2413	2	 10.6921	-4.45653	-19.1616	C.1
  2414	2	 9.21093	-3.46024	-18.3268	C.1
  2415	2	 9.08294	-3.81651	-19.1872	C.1
  2416	1	 10.9541	 19.9191	-5.99525	N.3
  2417	2	 11.6923	  19.238	-5.53472	C.1
  2418	2	 11.0886	 19.6377	-4.93523	C.1
  2419	2	 10.4921	  19.296	-6.78213	C.1
  2420	2	 9.88835	 19.6956	-6.18265	C.1
  2421	2	 11.5835	 20.6238	-6.56812	C.1
  2422	2	 10.9797	 21.0234	-5.96863	C.1
  2423	1	 2.40216	 13.5476	-16.5735	N.3
  2424	2	 2.74827	 12.8791	-17.3823	C.1
  2425	2	 1.81562	 12.9281	-17.2757	C.1
  2426	2	 2.89949	  14.506	-16.8077	C.1
  2427	2	 1.96685	 14.5551	-16.7011	C.1
  2428	2	  2.9577	  13.184	-15.6903	C.1
  2429	2	 2.02505	 13.2331	-15.5837	C.1
  2430	1	-17.0089	 6.61482	0.103258	N.3
  2431	2	 -17.697	 6.09674	0.795393	C.1
  2432	2	-17.3872	 6.93343	 1.09133	C.1
  2433	2	 -17.572	 6.63147	-0.847285	C.1
  2434	2	-17.2622	 7.46816	-0.551347	C.1
  2435	2	-16.2225	 5.86121	-0.0822398	C.1
  2436	2	-15.9127	 6.69791	0.213698	C.1
  2437	1	-4.73089	 8.74176	-3.68618	N.3
  2438	2	 -5.6848	 9.15329	-3.30988	C.1
  2439	2	-4.91887	  9.4212	-2.83534	C.1
  2440	2	-4.74135	 9.01762	-4.75606	C.1
  2441	2	-3.97542	 9.28553	-4.28153	C.1
  2442	2	-4.91541	 7.65251	 -3.7044	C.1
  2443	2	-4.14949	 7.92042	-3.22987	C.1
  2444	1	-1.83128	 5.12184	-9.72118	N.3
  2445	2	 -2.4571	 5.42036	-10.5815	C.1
  2446	2	-1.52999	 5.44106	-10.7352	C.1
  2447	2	-2.23956	 4.13362	-9.44265	C.1
  2448	2	-1.31244	 4.15433	-9.59636	C.1
  2449	2	-2.18784	 5.78049	-8.90884	C.1
  2450	2	-1.26073	  5.8012	-9.06254	C.1
  2451	1	 12.9361	 4.80353	 12.0609	N.3
  2452	2	  13.935	 5.27561	 12.0522	C.1
  2453	2	 13.3539	 5.55685	  11.369	C.1
  2454	2	 12.5775	 4.99003	 13.0893	C.1
  2455	2	 11.9964	 5.27127	 12.4061	C.1
  2456	2	 13.1673	 3.72309	 12.0661	C.1
  2457	2	 12.5862	 4.00432	 11.3829	C.1
  2458	1	-13.5493	-1.97354	 13.9659	N.3
  2459	2	-14.0069	-1.69246	 14.9316	C.1
  2460	2	-14.4216	-2.40879	  14.486	C.1
  2461	2	-12.4876	-2.13359	 14.2267	C.1
  2462	2	-12.9023	-2.84992	 13.7811	C.1
  2463	2	-13.5314	-1.02007	 13.4079	C.1
  2464	2	 -13.946	-1.73639	 12.9623	C.1
  2465	1	-17.4905	-19.9176	-15.8963	N.3
  2466	2	-17.9065	-19.1791	-16.6051	C.1
  2467	2	-18.1089	-20.0765	 -16.798	C.1
  2468	2	-17.8479	-19.5555	-14.9155	C.1
  2469	2	-18.0504	-20.4529	-15.1084	C.1
  2470	2	-16.4133	 -19.672	-15.8789	C.1
  2471	2	-16.6158	-20.5694	-16.0718	C.1
  2472	1	 3.02313	 19.1917	 9.26718	N.3
  2473	2	 2.11403	 19.5806	 8.77399	C.1
  2474	2	 2.45585	 20.1192	 9.46438	C.1
  2475	2	 3.71337	 19.0162	 8.42241	C.1
  2476	2	 4.05519	 19.5549	  9.1128	C.1
  2477	2	 2.72927	 18.1704	 9.56956	C.1
  2478	2	 3.07109	  18.709	 10.2599	C.1
  2479	1	-12.7053	-19.9364	-17.2104	N.3
  2480	2	-13.5416	-19.9892	-16.4901	C.1
  2481	2	-13.5473	-19.2379	-17.0551	C.1
  2482	2	 -12.754	-20.9125	-17.7259	C.1
  2483	2	-12.7596	-20.1613	-18.2908	C.1
  2484	2	-11.8119	-20.0344	-16.5677	C.1
  2485	2	-11.8176	-19.2832	-17.1327	C.1
  2486	1	 18.7716	-0.662619	 17.0367	N.3
  2487	2	 18.5572	  0.4149	  16.919	C.1
  2488	2	 17.8795	-0.0842247	 17.3376	C.1
  2489	2	 19.7485	-0.67081	 17.5529	C.1
  2490	2	 19.0709	-1.16993	 17.9716	C.1
  2491	2	 19.0257	-0.983261	 16.0103	C.1
  2492	2	  18.348	-1.48239	  16.429	C.1
  2493	1	-7.27133	-7.66099	 1.51565	N.3
  2494	2	-7.85947	-7.97026	 2.39845	C.1
  2495	2	-8.36366	-7.63389	 1.67995	C.1
  2496	2	-6.66797	-8.55799	 1.28721	C.1
  2497	2	-7.17216	-8.22162	0.568704	C.1
  2498	2	-6.53028	-6.95925	 1.93904	C.1
  2499	2	-7.03447	-6.62288	 1.22054	C.1
  2500	1	 18.4219	 1.10506	 12.1607	N.3
  2501	2	 17.9365	0.172562	  12.501	C.1
  2502	2	 18.7079	0.0536987	 11.9771	C.1
  2503	2	 18.5734	 1.66803	 13.0993	C.1
  2504	2	 19.3447	 1.54916	 12.5754	C.1
  2505	2	 17.5986	  1.6529	 11.6677	C.1
  2506	2	   18.37	 1.53404	 11.1438	C.1
  2507	1	 6.46114	 -17.195	-1.31738	N.3
  2508	2	 6.25276	-16.1555	-1.62879	C.1
  2509	2	 7.15925	-16.3539	-1.47871	C.1
  2510	2	 5.97228	-17.7972	-2.10426	C.1
  2511	2	 6.87877	-17.9956	-1.95418	C.1
  2512	2	 5.79863	-17.3347	-0.444212	C.1
  2513	2	 6.70513	-17.5331	-0.294133	C.1
  2514	1	-3.11007	-19.1802	 -9.3671	N.3
  2515	2	-3.15847	-20.1418	-8.82496	C.1
  2516	2	-3.80575	-19.5082	-8.57375	C.1
  2517	2	-3.13943	-19.4868	-10.4282	C.1
  2518	2	-3.78672	-18.8531	 -10.177	C.1
  2519	2	-2.06138	-18.8626	 -9.2249	C.1
  2520	2	-2.70866	 -18.229	 -8.9737	C.1
  2521	1	 2.07518	 9.88286	 17.7482	N.3
  2522	2	 1.72752	 9.21214	 18.5545	C.1
  2523	2	 1.08154	 9.81083	 18.2261	C.1
  2524	2	 2.49171	 9.18413	 17.0004	C.1
  2525	2	 1.84573	 9.78282	  16.672	C.1
  2526	2	 2.97529	 10.3543	 18.1823	C.1
  2527	2	 2.32931	  10.953	 17.8538	C.1
  2528	1	 4.55891	  18.344	 19.9757	N.3
  2529	2	 4.42527	 18.2526	 18.8827	C.1
  2530	2	 4.51303	 17.4384	 19.3442	C.1
  2531	2	 3.70121	 18.9688	 20.2836	C.1
  2532	2	 3.78897	 18.1546	 20.7452	C.1
  2533	2	 5.41862	 19.0319	 20.0684	C.1
  2534	2	 5.50638	 18.2177	 20.5299	C.1
  2535	1	 15.3719	 11.0842	  0.3344	N.3
  2536	2	  16.276	 11.5401	-0.107874	C.1
  2537	2	 15.6069	 11.3009	-0.723276	C.1
  2538	2	 15.0657	 11.8208	 1.09891	C.1
  2539	2	 14.3966	 11.5816	 0.48351	C.1
  2540	2	 15.7776	 10.2504	0.935266	C.1
  2541	2	 15.1085	 10.0112	0.319864	C.1
  2542	1	-10.6251	-7.15611	 -10.877	N.3
  2543	2	-9.96512	-6.90419	-11.7266	C.1
  2544	2	-9.95745	-6.28699	-11.0177	C.1
  2545	2	-10.3132	-8.18202	-10.6104	C.1
  2546	2	-10.3055	-7.56482	-9.90145	C.1
  2547	2	-11.6085	-7.30791	-11.3574	C.1
  2548	2	-11.6008	-6.69071	-10.6484	C.1
  2549	1	 2.76939	 9.53564	-16.0923	N.3
  2550	2	 3.24056	 10.3952	-15.5823	C.1
  2551	2	 3.42034	 9.55562	-15.1996	C.1
  2552	2	 3.09642	 9.65391	 -17.141	C.1
  2553	2	  3.2762	 8.81435	-16.7584	C.1
  2554	2	 1.70151	 9.81718	-16.1274	C.1
  2555	2	 1.88129	 8.97761	-15.7448	C.1
  2556	1	-11.7312	-7.00656	-14.6183	N.3
  2557	2	-11.6798	-6.32757	-15.4885	C.1
  2558	2	-11.8941	-7.22035	-15.6901	C.1
  2559	2	-12.4381	-6.49515	-13.9403	C.1
  2560	2	-12.6523	-7.38793	-14.1418	C.1
  2561	2	-10.7544	-6.85781	-14.1238	C.1
  2562	2	-10.9687	-7.75059	-14.3254	C.1
  2563	1	-5.18666	 2.19984	 8.15302	N.3
  2564	2	-4.78144	 1.96709	 7.15176	C.1
  2565	2	-4.16612	 2.34342	 7.75455	C.1
  2566	2	-5.63288	 1.24135	   8.474	C.1
  2567	2	-5.01756	 1.61768	 9.07679	C.1
  2568	2	-6.06865	  2.8266	 7.92912	C.1
  2569	2	-5.45333	 3.20294	  8.5319	C.1
  2570	1	-3.47758	-12.8784	-12.2993	N.3
  2571	2	-4.30246	-13.2708	-11.6776	C.1
  2572	2	-4.56872	-12.8386	-12.4688	C.1
  2573	2	-2.82694	  -13.76	-12.4415	C.1
  2574	2	 -3.0932	-13.3278	-13.2326	C.1
  2575	2	-2.90394	-12.2526	 -11.592	C.1
  2576	2	 -3.1702	-11.8204	-12.3832	C.1
  2577	1	-11.4159	 8.65147	 15.2631	N.3
  2578	2	-11.8732	 7.77376	 15.7545	C.1
  2579	2	-10.9599	 7.90276	 15.9357	C.1
  2580	2	-12.0772	 9.48335	 15.5657	C.1
  2581	2	-11.1639	 9.61235	 15.7469	C.1
  2582	2	-11.6673	 8.50381	 14.1974	C.1
  2583	2	 -10.754	 8.63282	 14.3786	C.1
  2584	1	-17.0562	-16.3455	 10.5084	N.3
  2585	2	-17.5275	-15.4165	 10.1399	C.1
  2586	2	-17.8665	 -15.741	 10.9545	C.1
  2587	2	-15.9794	-16.0978	 10.5128	C.1
  2588	2	-16.3183	-16.4223	 11.3273	C.1
  2589	2	-17.1533	-17.0353	 9.65083	C.1
  2590	2	-17.4922	-17.3598	 10.4654	C.1
  2591	1	 16.1691	 6.84095	 13.3317	N.3
  2592	2	 16.9547	 7.06588	 14.0754	C.1
  2593	2	 17.1506	 6.35823	 13.4885	C.1
  2594	2	 15.9927	 7.81821	 12.8472	C.1
  2595	2	 16.1886	 7.11056	 12.2603	C.1
  2596	2	 15.2661	 6.70024	 13.9527	C.1
  2597	2	  15.462	 5.99258	 13.3658	C.1
  2598	1	 9.56936	-11.7542	 8.85619	N.3
  2599	2	 8.87013	-12.5392	 9.19653	C.1
  2600	2	 9.76557	 -12.662	 9.45477	C.1
  2601	2	 9.09918	-10.8225	 9.21902	C.1
  2602	2	 9.99462	-10.9453	 9.47725	C.1
  2603	2	 9.39562	-11.7167	 7.76565	C.1
  2604	2	 10.2911	-11.8396	 8.02389	C.1
  2605	1	-19.9306	 8.39347	 18.0141	N.3
  2606	2	-19.0612	 8.97124	 18.3765	C.1
  2607	2	-19.7704	 8.88981	 18.9882	C.1
  2608	2	-19.4806	 7.43902	 17.6863	C.1
  2609	2	-20.1897	 7.35758	  18.298	C.1
  2610	2	-20.1861	 8.89232	 17.0619	C.1
  2611	2	-20.8953	 8.81088	 17.6735	C.1
  2612	1	-4.19356	 16.3131	-2.81355	N.3
  2613	2	-4.82787	 15.8172	 -3.5703	C.1
  2614	2	-4.69516	 16.7385	-3.70141	C.1
  2615	2	-3.27374	 15.7009	 -2.8146	C.1
  2616	2	-3.14102	 16.6222	-2.94571	C.1
  2617	2	-4.67815	 16.0392	-1.85908	C.1
  2618	2	-4.54544	 16.9605	 -1.9902	C.1
  2619	1	 9.28977	 4.59855	 14.0394	N.3
  2620	2	  9.7404	 5.09052	 13.1587	C.1
  2621	2	 8.96069	 4.59517	 12.9847	C.1
  2622	2	 9.16842	 5.42902	 14.7581	C.1
  2623	2	  8.3887	 4.93367	 14.5841	C.1
  2624	2	 10.1301	 4.01914	 14.4626	C.1
  2625	2	 9.35034	 3.52379	 14.2886	C.1
  2626	1	-14.9597	-7.38146	  6.2218	N.3
  2627	2	-15.5481	-7.31791	 7.15487	C.1
  2628	2	-15.7292	-6.64732	 6.52152	C.1
  2629	2	-15.1432	-8.41516	 5.87735	C.1
  2630	2	-15.3243	-7.74457	   5.244	C.1
  2631	2	-13.9162	 -7.4172	 6.58321	C.1
  2632	2	-14.0972	-6.74661	 5.94986	C.1
  2633	1	-14.5581	-17.5373	 6.45276	N.3
  2634	2	-14.2396	 -18.261	 5.68095	C.1
  2635	2	-14.8523	-17.6102	 5.39021	C.1
  2636	2	-13.6011	-17.1425	 6.83913	C.1
  2637	2	-14.2139	-16.4917	 6.54839	C.1
  2638	2	-14.9144	-18.1846	 7.27429	C.1
  2639	2	-15.5271	-17.5338	 6.98355	C.1
  2640	1	 4.67968	  16.264	-14.1096	N.3
  2641	2	 4.47149	 16.9393	-13.2602	C.1
  2642	2	 3.78736	 16.8818	-13.9023	C.1
  2643	2	 4.94241	 15.3109	 -13.616	C.1
  2644	2	 4.25828	 15.2534	-14.2581	C.1
  2645	2	 5.65134	 16.6279	-14.4894	C.1
  2646	2	 4.96721	 16.5704	-15.1315	C.1
  2647	1	-2.23919	-3.30117	-7.22533	N.3
  2648	2	-1.26471	-2.86248	 -7.5061	C.1
  2649	2	-1.30168	-3.23581	-6.64421	C.1
  2650	2	-2.44693	-4.00473	-8.05159	C.1
  2651	2	 -2.4839	-4.37807	-7.18971	C.1
  2652	2	-2.95047	-2.47631	-7.41114	C.1
  2653	2	-2.98745	-2.84964	-6.54925	C.1
  2654	1	-0.764231	-5.42268	 17.7243	N.3
  2655	2	-0.186065	-5.95625	 18.5001	C.1
  2656	2	-0.211982	-5.02121	  18.593	C.1
  2657	2	-1.74788	-5.92519	  17.752	C.1
  2658	2	 -1.7738	-4.99016	 17.8449	C.1
  2659	2	-0.31987	-5.78916	 16.7814	C.1
  2660	2	-0.345787	-4.85412	 16.8743	C.1
  2661	1	 -19.915	-12.1857	-12.2851	N.3
  2662	2	-20.5467	 -13.092	-12.2654	C.1
  2663	2	-19.8074	-13.1325	-12.8444	C.1
  2664	2	-19.6695	-12.0257	-11.2197	C.1
  2665	2	-18.9301	-12.0662	-11.7987	C.1
  2666	2	-20.6379	-11.3786	-12.5016	C.1
  2667	2	-19.8985	-11.4191	-13.0806	C.1
  2668	1	 12.9125	 5.55762	 19.4972	N.3
  2669	2	 13.6313	 4.71917	 19.5316	C.1
  2670	2	 13.2548	 4.95721	 20.3593	C.1
  2671	2	 12.1885	 5.23823	  18.726	C.1
  2672	2	  11.812	 5.47627	 19.5538	C.1
  2673	2	 13.4824	 6.35841	 18.9924	C.1
  2674	2	 13.1059	 6.59645	 19.8202	C.1
  2675	1	 16.7156	-11.5588	 19.6916	N.3
  2676	2	 16.7268	-11.5129	 20.7955	C.1
  2677	2	 16.6708	-10.6811	 20.3613	C.1
  2678	2	 15.8876	-12.2581	 19.4762	C.1
  2679	2	 15.8317	-11.4263	  19.042	C.1
  2680	2	 17.6163	-12.1532	 19.4544	C.1
  2681	2	 17.5604	-11.3214	 19.0202	C.1
  2682	1	-7.12874	 8.50044	-0.544139	N.3
  2683	2	-6.82144	 7.46282	-0.32095	C.1
  2684	2	-6.68575	 7.73764	-1.20958	C.1
  2685	2	-6.59119	  9.0926	 0.21825	C.1
  2686	2	 -6.4555	 9.36743	-0.670378	C.1
  2687	2	-8.17711	 8.53365	-0.196775	C.1
  2688	2	-8.04143	 8.80848	 -1.0854	C.1
  2689	1	-16.9738	-18.5822	-3.83783	N.3
  2690	2	-17.2666	-19.1764	-4.72222	C.1
  2691	2	-16.8283	-18.3667	-4.91174	C.1
  2692	2	-16.3927	-19.3006	  -3.232	C.1
  2693	2	-15.9544	-18.4909	-3.42152	C.1
  2694	2	-17.9196	-18.4842	-3.27498	C.1
  2695	2	-17.4813	-17.6745	-3.46451	C.1
  2696	1	 11.4065	 19.6632	 11.3941	N.3
  2697	2	 11.9845	 18.8388	 11.8494	C.1
  2698	2	 11.0547	 18.7957	 11.9812	C.1
  2699	2	 11.7328	 19.6475	 10.3386	C.1
  2700	2	 10.8031	 19.6044	 10.4704	C.1
  2701	2	 11.8969	 20.5678	 11.7966	C.1
  2702	2	 10.9672	 20.5248	 11.9285	C.1
  2703	1	 19.6661	-8.93218	 2.93216	N.3
  2704	2	 20.1824	-9.76838	 3.43723	C.1
  2705	2	 19.8121	-9.12222	 4.01079	C.1
  2706	2	 18.9431	-9.44381	 2.27156	C.1
  2707	2	 18.5728	-8.79765	 2.84513	C.1
  2708	2	 20.4281	-8.55359	 2.22733	C.1
  2709	2	 20.0579	-7.90743	  2.8009	C.1
  2710	1	 7.70128	-7.07249	 -16.826	N.3
  2711	2	  8.0093	-7.77267	-16.0286	C.1
  2712	2	 7.67593	-6.94659	-15.7285	C.1
  2713	2	 6.99689	  -7.672	-17.4303	C.1
  2714	2	 6.66352	-6.84593	-17.1302	C.1
  2715	2	  8.5977	 -7.0119	-17.4691	C.1
  2716	2	 8.26432	-6.18582	 -17.169	C.1
  2717	1	-12.8629	-2.06503	 10.4307	N.3
  2718	2	-12.4036	-1.87764	 9.44335	C.1
  2719	2	  -12.93	-2.65449	 9.49851	C.1
  2720	2	-13.3949	-1.12064	 10.6451	C.1
  2721	2	-13.9212	-1.89749	 10.7003	C.1
  2722	2	-12.0007	-2.03155	 11.1208	C.1
  2723	2	 -12.527	-2.80839	  11.176	C.1
  2724	1	  0.1969	 4.53644	 16.0966	N.3
  2725	2	 1.23663	 4.86747	 16.2707	C.1
  2726	2	0.908059	 4.23996	 16.8886	C.1
  2727	2	0.212535	 4.19694	 15.0453	C.1
  2728	2	-0.116031	 3.56943	 15.6633	C.1
  2729	2	-0.365611	 5.48616	  16.047	C.1
  2730	2	-0.694177	 4.85865	  16.665	C.1
  2731	1	-16.3224	-17.9862	-14.4867	N.3
  2732	2	-17.2214	-17.3466	-14.4266	C.1
  2733	2	-17.3575	-18.2496	-14.2038	C.1
  2734	2	-15.5895	-17.4518	-13.8557	C.1
  2735	2	-15.7257	-18.3548	-13.6329	C.1
  2736	2	 -15.952	-17.8058	 -15.512	C.1
  2737	2	-16.0882	-18.7088	-15.2892	C.1
  2738	1	 15.4433	 18.2115	-15.8963	N.3
  2739	2	 15.8527	  18.941	-16.6182	C.1
  2740	2	  16.049	 19.1179	-15.7162	C.1
  2741	2	 15.8153	 17.2433	-16.2771	C.1
  2742	2	 16.0116	 17.4202	 -15.375	C.1
  2743	2	 14.3675	 18.1849	-16.1467	C.1
  2744	2	 14.5638	 18.3618	-15.2447	C.1
  2745	1	-16.8602	 3.66334	  -17.04	N.3
  2746	2	-16.2968	 3.37701	-17.9463	C.1
  2747	2	-16.2106	 4.27716	-17.6896	C.1
  2748	2	-16.5227	 2.92614	-16.2893	C.1
  2749	2	-16.4364	 3.82628	-16.0326	C.1
  2750	2	-17.8905	 3.33666	-17.2693	C.1
  2751	2	-17.8043	 4.23681	-17.0126	C.1
  2752	1	-7.58323	 12.9026	-5.74473	N.3
  2753	2	-6.53567	 13.2332	-5.86408	C.1
  2754	2	-7.18371	 13.8992	-6.00557	C.1
  2755	2	-7.59083	 12.4456	-4.73878	C.1
  2756	2	-8.23888	 13.1116	-4.88027	C.1
  2757	2	-7.65112	   12.03	-6.41909	C.1
  2758	2	-8.29916	  12.696	-6.56058	C.1
  2759	1	 17.3693	-17.9715	-8.02463	N.3
  2760	2	  18.204	-17.5319	-8.59988	C.1
  2761	2	 17.4087	-17.6607	-9.08421	C.1
  2762	2	  17.284	-17.3008	-7.15069	C.1
  2763	2	 16.4887	-17.4295	-7.63502	C.1
  2764	2	 17.8127	-18.8886	 -7.5968	C.1
  2765	2	 17.0175	-19.0174	-8.08113	C.1
  2766	1	 2.28509	 15.2129	 4.26639	N.3
  2767	2	 2.91829	  15.359	 5.16005	C.1
  2768	2	  2.1253	 15.8635	 5.14507	C.1
  2769	2	 2.14586	 14.1173	 4.23184	C.1
  2770	2	 1.35287	 14.6218	 4.21686	C.1
  2771	2	 2.98062	 15.4056	 3.42976	C.1
  2772	2	 2.18762	 15.9101	 3.41478	C.1
  2773	1	-14.9488	-0.28601	  -15.83	N.3
  2774	2	-15.5572	0.104383	-16.6658	C.1
  2775	2	-14.8477	-0.458886	-16.9167	C.1
  2776	2	-15.7007	-0.745632	-15.1635	C.1
  2777	2	-14.9912	 -1.3089	-15.4144	C.1
  2778	2	-14.6529	0.628122	-15.2845	C.1
  2779	2	-13.9434	0.064853	-15.5354	C.1
  2780	1	-8.87488	 1.16261	-12.6898	N.3
  2781	2	-9.49721	 2.06213	-12.5334	C.1
  2782	2	-8.92989	 1.83902	-11.8178	C.1
  2783	2	-8.36408	 1.37219	-13.6469	C.1
  2784	2	-7.79677	 1.14908	-12.9314	C.1
  2785	2	-9.61432	0.388178	-12.9625	C.1
  2786	2	-9.04701	0.165067	-12.2469	C.1
  2787	1	-8.74647	 7.34571	 12.6732	N.3
  2788	2	-8.29579	 6.79859	 11.8256	C.1
  2789	2	-7.78789	 7.51919	 12.1517	C.1
  2790	2	-8.95441	 6.54679	 13.4076	C.1
  2791	2	-8.44651	  7.2674	 13.7337	C.1
  2792	2	-9.75105	 7.61085	 12.2972	C.1
  2793	2	-9.24315	 8.33145	 12.6233	C.1
  2794	1	 7.24664	0.346666	 16.3049	N.3
  2795	2	 7.35977	 1.41112	 16.5789	C.1
  2796	2	 7.43572	 1.22427	 15.6608	C.1
  2797	2	 6.27993	0.069428	 16.7626	C.1
  2798	2	 6.35587	-0.117417	 15.8445	C.1
  2799	2	 7.98631	-0.160282	 16.9505	C.1
  2800	2	 8.06226	-0.347127	 16.0324	C.1
@<TRIPOS>BOND
       1	       1	       2	 1
       2	       1	       3	 1
       3	       1	       4	 1
       4	       1	       5	 1
       5	       1	       6	 1
       6	       1	       7	 1
       7	       8	       9	 1
       8	       8	      10	 1
       9	       8	      11	 1
      10	       8	      12	 1
      11	       8	      13	 1
      12	       8	      14	 1
      13	      15	      16	 1
      14	      15	      17	 1
      15	      15	      18	 1
      16	      15	      19	 1
      17	      15	      20	 1
      18	      15	      21	 1
      19	      22	      23	 1
      20	      22	      24	 1
      21	      22	      25	 1
      22	      22	      26	 1
      23	      22	      27	 1
      24	      22	      28	 1
      25	      29	      30	 1
      26	      29	      31	 1
      27	      29	      32	 1
      28	      29	      33	 1
      29	      29	      34	 1
      30	      29	      35	 1
      31	      36	      37	 1
      32	      36	      38	 1
      33	      36	      39	 1
      34	      36	      40	 1
      35	      36	      41	 1
      36	      36	      42	 1
      37	      43	      44	 1
      38	      43	      45	 1
      39	      43	      46	 1
      40	      43	      47	 1
      41	      43	      48	 1
      42	      43	      49	 1
      43	      50	      51	 1
      44	      50	      52	 1
      45	      50	      53	 1
      46	      50	      54	 1
      47	      50	      55	 1
      48	      50	      56	 1
      49	      57	      58	 1
      50	      57	      59	 1
      51	      57	      60	 1
      52	      57	      61	 1
      53	      57	      62	 1
      54	      57	      63	 1
      55	      64	      65	 1
      56	      64	      66	 1
      57	      64	      67	 1
      58	      64	      68	 1
      59	      64	      69	 1
      60	      64	      70	 1
      61	      71	      72	 1
      62	      71	      73	 1
      63	      71	      74	 1
      64	      71	      75	 1
      65	      71	      76	 1
      66	      71	      77	 1
      67	      78	      79	 1
      68	      78	      80	 1
      69	      78	      81	 1
      70	      78	      82	 1
      71	      78	      83	 1
      72	      78	      84	 1
      73	      85	      86	 1
      74	      85	      87	 1
      75	      85	      88	 1
      76	      85	      89	 1
      77	      85	      90	 1
      78	      85	      91	 1
      79	      92	      93	 1
      80	      92	      94	 1
      81	      92	      95	 1
      82	      92	      96	 1
      83	      92	      97	 1
      84	      92	      98	 1
      85	      99	     100	 1
      86	      99	     101	 1
      87	      99	     102	 1
      88	      99	     103	 1
      89	      99	     104	 1
      90	      99	     105	 1
      91	     106	     107	 1
      92	     106	     108	 1
      93	     106	     109	 1
      94	     106	     110	 1
      95	     106	     111	 1
      96	     106	     112	 1
      97	     113	     114	 1
      98	     113	     115	 1
      99	     113	     116	 1
     100	     113	     117	 1
     101	     113	     118	 1
     102	     113	     119	 1
     103	     120	     121	 1
     104	     120	     122	 1
     105	     120	     123	 1
     106	     120	     124	 1
     107	     120	     125	 1
     108	     120	     126	 1
     109	     127	     128	 1
     110	     127	     129	 1
     111	     127	     130	 1
     112	     127	     131	 1
     113	     127	     132	 1
     114	     127	     133	 1
     115	     134	     135	 1
     116	     134	     136	 1
     117	     134	     137	 1
     118	     134	     138	 1
     119	     134	     139	 1
     120	     134	     140	 1
     121	     141	     142	 1
     122	     141	     143	 1
     123	     141	     144	 1
     124	     141	     145	 1
     125	     141	     146	 1
     126	     141	     147	 1
     127	     148	     149	 1
     128	     148	     150	 1
     129	     148	     151	 1
     130	     148	     152	 1
     131	     148	     153	 1
     132	     148	     154	 1
     133	     155	     156	 1
     134	     155	     157	 1
     135	     155	     158	 1
     136	     155	     159	 1
     137	     155	     160	 1
     138	     155	     161	 1
     139	     162	     163	 1
     140	     162	     164	 1
     141	     162	     165	 1
     142	     162	     166	 1
     143	     162	     167	 1
     144	     162	     168	 1
     145	     169	     170	 1
     146	     169	     171	 1
     147	     169	     172	 1
     148	     169	     173	 1
     149	     169	     174	 1
     150	     169	     175	 1
     151	     176	     177	 1
     152	     176	     178	 1
     153	     176	     179	 1
     154	     176	     180	 1
     155	     176	     181	 1
     156	     176	     182	 1
     157	     183	     184	 1
     158	     183	     185	 1
     159	     183	     186	 1
     160	     183	     187	 1
     161	     183	     188	 1
     162	     183	     189	 1
     163	     190	     191	 1
     164	     190	     192	 1
     165	     190	     193	 1
     166	     190	     194	 1
     167	     190	     195	 1
     168	     190	     196	 1
     169	     197	     198	 1
     170	     197	     199	 1
     171	     197	     200	 1
     172	     197	     201	 1
     173	     197	     202	 1
     174	     197	     203	 1
     175	     204	     205	 1
     176	     204	     206	 1
     177	     204	     207	 1
     178	     204	     208	 1
     179	     204	     209	 1
     180	     204	     210	 1
     181	     211	     212	 1
     182	     211	     213	 1
     183	     211	     214	 1
     184	     211	     215	 1
     185	     211	     216	 1
     186	     211	     217	 1
     187	     218	     219	 1
     188	     218	     220	 1
     189	     218	     221	 1
     190	     218	     222	 1
     191	     218	     223	 1
     192	     218	     224	 1
     193	     225	     226	 1
     194	     225	     227	 1
     195	     225	     228	 1
     196	     225	     229	 1
     197	     225	     230	 1
     198	     225	     231	 1
     199	     232	     233	 1
     200	     232	     234	 1
     201	     232	     235	 1
     202	     232	     236	 1
     203	     232	     237	 1
     204	     232	     238	 1
     205	     239	     240	 1
     206	     239	     241	 1
     207	     239	     242	 1
     208	     239	     243	 1
     209	     239	     244	 1
     210	     239	     245	 1
     211	     246	     247	 1
     212	     246	     248	 1
     213	     246	     249	 1
     214	     246	     250	 1
     215	     246	     251	 1
     216	     246	     252	 1
     217	     253	     254	 1
     218	     253	     255	 1
     219	     253	     256	 1
     220	     253	     257	 1
     221	     253	     258	 1
     222	     253	     259	 1
     223	     260	     261	 1
     224	     260	     262	 1
     225	     260	     263	 1
     226	     260	     264	 1
     227	     260	     265	 1
     228	     260	     266	 1
     229	     267	     268	 1
     230	     267	     269	 1
     231	     267	     270	 1
     232	     267	     271	 1
     233	     267	     272	 1
     234	     267	     273	 1
     235	     274	     275	 1
     236	     274	     276	 1
     237	     274	     277	 1
     238	     274	     278	 1
     239	     274	     279	 1
     240	     274	     280	 1
     241	     281	     282	 1
     242	     281	     283	 1
     243	     281	     284	 1
     244	     281	     285	 1
     245	     281	     286	 1
     246	     281	     287	 1
     247	     288	     289	 1
     248	     288	     290	 1
     249	     288	     291	 1
     250	     288	     292	 1
     251	     288	     293	 1
     252	     288	     294	 1
     253	     295	     296	 1
     254	     295	     297	 1
     255	     295	     298	 1
     256	     295	     299	 1
     257	     295	     300	 1
     258	     295	     301	 1
     259	     302	     303	 1
     260	     302	     304	 1
     261	     302	     305	 1
     262	     302	     306	 1
     263	     302	     307	 1
     264	     302	     308	 1
     265	     309	     310	 1
     266	     309	     311	 1
     267	     309	     312	 1
     268	     309	     313	 1
     269	     309	     314	 1
     270	     309	     315	 1
     271	     316	     317	 1
     272	     316	     318	 1
     273	     316	     319	 1
     274	     316	     320	 1
     275	     316	     321	 1
     276	     316	     322	 1
     277	     323	     324	 1
     278	     323	     325	 1
     279	     323	     326	 1
     280	     323	     327	 1
     281	     323	     328	 1
     282	     323	     329	 1
     283	     330	     331	 1
     284	     330	     332	 1
     285	     330	     333	 1
     286	     330	     334	 1
     287	     330	     335	 1
     288	     330	     336	 1
     289	     337	     338	 1
     290	     337	     339	 1
     291	     337	     340	 1
     292	     337	     341	 1
     293	     337	     342	 1
     294	     337	     343	 1
     295	     344	     345	 1
     296	     344	     346	 1
     297	     344	     347	 1
     298	     344	     348	 1
     299	     344	     349	 1
     300	     344	     350	 1
     301	     351	     352	 1
     302	     351	     353	 1
     303	     351	     354	 1
     304	     351	     355	 1
     305	     351	     356	 1
     306	     351	     357	 1
     307	     358	     359	 1
     308	     358	     360	 1
     309	     358	     361	 1
     310	     358	     362	 1
     311	     358	     363	 1
     312	     358	     364	 1
     313	     365	     366	 1
     314	     365	     367	 1
     315	     365	     368	 1
     316	     365	     369	 1
     317	     365	     370	 1
     318	     365	     371	 1
     319	     372	     373	 1
     320	     372	     374	 1
     321	     372	     375	 1
     322	     372	     376	 1
     323	     372	     377	 1
     324	     372	     378	 1
     325	     379	     380	 1
     326	     379	     381	 1
     327	     379	     382	 1
     328	     379	     383	 1
     329	     379	     384	 1
     330	     379	     385	 1
     331	     386	     387	 1
     332	     386	     388	 1
     333	     386	     389	 1
     334	     386	     390	 1
     335	     386	     391	 1
     336	     386	     392	 1
     337	     393	     394	 1
     338	     393	     395	 1
     339	     393	     396	 1
     340	     393	     397	 1
     341	     393	     398	 1
     342	     393	     399	 1
     343	     400	     401	 1
     344	     400	     402	 1
     345	     400	     403	 1
     346	     400	     404	 1
     347	     400	     405	 1
     348	     400	     406	 1
     349	     407	     408	 1
     350	     407	     409	 1
     351	     407	     410	 1
     352	     407	     411	 1
     353	     407	     412	 1
     354	     407	     413	 1
     355	     414	     415	 1
     356	     414	     416	 1
     357	     414	     417	 1
     358	     414	     418	 1
     359	     414	     419	 1
     360	     414	     420	 1
     361	     421	     422	 1
     362	     421	     423	 1
     363	     421	     424	 1
     364	     421	     425	 1
     365	     421	     426	 1
     366	     421	     427	 1
     367	     428	     429	 1
     368	     428	     430	 1
     369	     428	     431	 1
     370	     428	     432	 1
     371	     428	     433	 1
     372	     428	     434	 1
     373	     435	     436	 1
     374	     435	     437	 1
     375	     435	     438	 1
     376	     435	     439	 1
     377	     435	     440	 1
     378	     435	     441	 1
     379	     442	     443	 1
     380	     442	     444	 1
     381	     442	     445	 1
     382	     442	     446	 1
     383	     442	     447	 1
     384	     442	     448	 1
     385	     449	     450	 1
     386	     449	     451	 1
     387	     449	     452	 1
     388	     449	     453	 1
     389	     449	     454	 1
     390	     449	     455	 1
     391	     456	     457	 1
     392	     456	     458	 1
     393	     456	     459	 1
     394	     456	     460	 1
     395	     456	     461	 1
     396	     456	     462	 1
     397	     463	     464	 1
     398	     463	     465	 1
     399	     463	     466	 1
     400	     463	     467	 1
     401	     463	     468	 1
     402	     463	     469	 1
     403	     470	     471	 1
     404	     470	     472	 1
     405	     470	     473	 1
     406	     470	     474	 1
     407	     470	     475	 1
     408	     470	     476	 1
     409	     477	     478	 1
     410	     477	     479	 1
     411	     477	     480	 1
     412	     477	     481	 1
     413	     477	     482	 1
     414	     477	     483	 1
     415	     484	     485	 1
     416	     484	     486	 1
     417	     484	     487	 1
     418	     484	     488	 1
     419	     484	     489	 1
     420	     484	     490	 1
     421	     491	     492	 1
     422	     491	     493	 1
     423	     491	     494	 1
     424	     491	     495	 1
     425	     491	     496	 1
     426	     491	     497	 1
     427	     498	     499	 1
     428	     498	     500	 1
     429	     498	     501	 1
     430	     498	     502	 1
     431	     498	     503	 1
     432	     498	     504	 1
     433	     505	     506	 1
     434	     505	     507	 1
     435	     505	     508	 1
     436	     505	     509	 1
     437	     505	     510	 1
     438	     505	     511	 1
     439	     512	     513	 1
     440	     512	     514	 1
     441	     512	     515	 1
     442	     512	     516	 1
     443	     512	     517	 1
     444	     512	     518	 1
     445	     519	     520	 1
     446	     519	     521	 1
     447	     519	     522	 1
     448	     519	     523	 1
     449	     519	     524	 1
     450	     519	     525	 1
     451	     526	     527	 1
     452	     526	     528	 1
     453	     526	     529	 1
     454	     526	     530	 1
     455	     526	     531	 1
     456	     526	     532	 1
     457	     533	     534	 1
     458	     533	     535	 1
     459	     533	     536	 1
     460	     533	     537	 1
     461	     533	     538	 1
     462	     533	     539	 1
     463	     540	     541	 1
     464	     540	     542	 1
     465	     540	     543	 1
     466	     540	     544	 1
     467	     540	     545	 1
     468	     540	     546	 1
     469	     547	     548	 1
     470	     547	     549	 1
     471	     547	     550	 1
     472	     547	     551	 1
     473	     547	     552	 1
     474	     547	     553	 1
     475	     554	     555	 1
     476	     554	     556	 1
     477	     554	     557	 1
     478	     554	     558	 1
     479	     554	     559	 1
     480	     554	     560	 1
     481	     561	     562	 1
     482	     561	     563	 1
     483	     561	     564	 1
     484	     561	     565	 1
     485	     561	     566	 1
     486	     561	     567	 1
     487	     568	     569	 1
     488	     568	     570	 1
     489	     568	     571	 1
     490	     568	     572	 1
     491	     568	     573	 1
     492	     568	     574	 1
     493	     575	     576	 1
     494	     575	     577	 1
     495	     575	     578	 1
     496	     575	     579	 1
     497	     575	     580	 1
     498	     575	     581	 1
     499	     582	     583	 1
     500	     582	     584	 1
     501	     582	     585	 1
     502	     582	     586	 1
     503	     582	     587	 1
     504	     582	     588	 1
     505	     589	     590	 1
     506	     589	     591	 1
     507	     589	     592	 1
     508	     589	     593	 1
     509	     589	     594	 1
     510	     589	     595	 1
     511	     596	     597	 1
     512	     596	     598	 1
     513	     596	     599	 1
     514	     596	     600	 1
     515	     596	     601	 1
     516	     596	     602	 1
     517	     603	     604	 1
     518	     603	     605	 1
     519	     603	     606	 1
     520	     603	     607	 1
     521	     603	     608	 1
     522	     603	     609	 1
     523	     610	     611	 1
     524	     610	     612	 1
     525	     610	     613	 1
     526	     610	     614	 1
     527	     610	     615	 1
     528	     610	     616	 1
     529	     617	     618	 1
     530	     617	     619	 1
     531	     617	     620	 1
     532	     617	     621	 1
     533	     617	     622	 1
     534	     617	     623	 1
     535	     624	     625	 1
     536	     624	     626	 1
     537	     624	     627	 1
     538	     624	     628	 1
     539	     624	     629	 1
     540	     624	     630	 1
     541	     631	     632	 1
     542	     631	     633	 1
     543	     631	     634	 1
     544	     631	     635	 1
     545	     631	     636	 1
     546	     631	     637	 1
     547	     638	     639	 1
     548	     638	     640	 1
     549	     638	     641	 1
     550	     638	     642	 1
     551	     638	     643	 1
     552	     638	     644	 1
     553	     645	     646	 1
     554	     645	     647	 1
     555	     645	     648	 1
     556	     645	     649	 1
     557	     645	     650	 1
     558	     645	     651	 1
     559	     652	     653	 1
     560	     652	     654	 1
     561	     652	     655	 1
     562	     652	     656	 1
     563	     652	     657	 1
     564	     652	     658	 1
     565	     659	     660	 1
     566	     659	     661	 1
     567	     659	     662	 1
     568	     659	     663	 1
     569	     659	     664	 1
     570	     659	     665	 1
     571	     666	     667	 1
     572	     666	     668	 1
     573	     666	     669	 1
     574	     666	     670	 1
     575	     666	     671	 1
     576	     666	     672	 1
     577	     673	     674	 1
     578	     673	     675	 1
     579	     673	     676	 1
     580	     673	     677	 1
     581	     673	     678	 1
     582	     673	     679	 1
     583	     680	     681	 1
     584	     680	     682	 1
     585	     680	     683	 1
     586	     680	     684	 1
     587	     680	     685	 1
     588	     680	     686	 1
     589	     687	     688	 1
     590	     687	     689	 1
     591	     687	     690	 1
     592	     687	     691	 1
     593	     687	     692	 1
     594	     687	     693	 1
     595	     694	     695	 1
     596	     694	     696	 1
     597	     694	     697	 1
     598	     694	     698	 1
     599	     694	     699	 1
     600	     694	     700	 1
     601	     701	     702	 1
     602	     701	     703	 1
     603	     701	     704	 1
     604	     701	     705	 1
     605	     701	     706	 1
     606	     701	     707	 1
     607	     708	     709	 1
     608	     708	     710	 1
     609	     708	     711	 1
     610	     708	     712	 1
     611	     708	     713	 1
     612	     708	     714	 1
     613	     715	     716	 1
     614	     715	     717	 1
     615	     715	     718	 1
     616	     715	     719	 1
     617	     715	     720	 1
     618	     715	     721	 1
     619	     722	     723	 1
     620	     722	     724	 1
     621	     722	     725	 1
     622	     722	     726	 1
     623	     722	     727	 1
     624	     722	     728	 1
     625	     729	     730	 1
     626	     729	     731	 1
     627	     729	     732	 1
     628	     729	     733	 1
     629	     729	     734	 1
     630	     729	     735	 1
     631	     736	     737	 1
     632	     736	     738	 1
     633	     736	     739	 1
     634	     736	     740	 1
     635	     736	     741	 1
     636	     736	     742	 1
     637	     743	     744	 1
     638	     743	     745	 1
     639	     743	     746	 1
     640	     743	     747	 1
     641	     743	     748	 1
     642	     743	     749	 1
     643	     750	     751	 1
     644	     750	     752	 1
     645	     750	     753	 1
     646	     750	     754	 1
     647	     750	     755	 1
     648	     750	     756	 1
     649	     757	     758	 1
     650	     757	     759	 1
     651	     757	     760	 1
     652	     757	     761	 1
     653	     757	     762	 1
     654	     757	     763	 1
     655	     764	     765	 1
     656	     764	     766	 1
     657	     764	     767	 1
     658	     764	     768	 1
     659	     764	     769	 1
     660	     764	     770	 1
     661	     771	     772	 1
     662	     771	     773	 1
     663	     771	     774	 1
     664	     771	     775	 1
     665	     771	     776	 1
     666	     771	     777	 1
     667	     778	     779	 1
     668	     778	     780	 1
     669	     778	     781	 1
     670	     778	     782	 1
     671	     778	     783	 1
     672	     778	     784	 1
     673	     785	     786	 1
     674	     785	     787	 1
     675	     785	     788	 1
     676	     785	     789	 1
     677	     785	     790	 1
     678	     785	     791	 1
     679	     792	     793	 1
     680	     792	     794	 1
     681	     792	     795	 1
     682	     792	     796	 1
     683	     792	     797	 1
     684	     792	     798	 1
     685	     799	     800	 1
     686	     799	     801	 1
     687	     799	     802	 1
     688	     799	     803	 1
     689	     799	     804	 1
     690	     799	     805	 1
     691	     806	     807	 1
     692	     806	     808	 1
     693	     806	     809	 1
     694	     806	     810	 1
     695	     806	     811	 1
     696	     806	     812	 1
     697	     813	     814	 1
     698	     813	     815	 1
     699	     813	     816	 1
     700	     813	     817	 1
     701	     813	     818	 1
     702	     813	     819	 1
     703	     820	     821	 1
     704	     820	     822	 1
     705	     820	     823	 1
     706	     820	     824	 1
     707	     820	     825	 1
     708	     820	     826	 1
     709	     827	     828	 1
     710	     827	     829	 1
     711	     827	     830	 1
     712	     827	     831	 1
     713	     827	     832	 1
     714	     827	     833	 1
     715	     834	     835	 1
     716	     834	     836	 1
     717	     834	     837	 1
     718	     834	     838	 1
     719	     834	     839	 1
     720	     834	     840	 1
     721	     841	     842	 1
     722	     841	     843	 1
     723	     841	     844	 1
     724	     841	     845	 1
     725	     841	     846	 1
     726	     841	     847	 1
     727	     848	     849	 1
     728	     848	     850	 1
     729	     848	     851	 1
     730	     848	     852	 1
     731	     848	     853	 1
     732	     848	     854	 1
     733	     855	     856	 1
     734	     855	     857	 1
     735	     855	     858	 1
     736	     855	     859	 1
     737	     855	     860	 1
     738	     855	     861	 1
     739	     862	     863	 1
     740	     862	     864	 1
     741	     862	     865	 1
     742	     862	     866	 1
     743	     862	     867	 1
     744	     862	     868	 1
     745	     869	     870	 1
     746	     869	     871	 1
     747	     869	     872	 1
     748	     869	     873	 1
     749	     869	     874	 1
     750	     869	     875	 1
     751	     876	     877	 1
     752	     876	     878	 1
     753	     876	     879	 1
     754	     876	     880	 1
     755	     876	     881	 1
     756	     876	     882	 1
     757	     883	     884	 1
     758	     883	     885	 1
     759	     883	     886	 1
     760	     883	     887	 1
     761	     883	     888	 1
     762	     883	     889	 1
     763	     890	     891	 1
     764	     890	     892	 1
     765	     890	     893	 1
     766	     890	     894	 1
     767	     890	     895	 1
     768	     890	     896	 1
     769	     897	     898	 1
     770	     897	     899	 1
     771	     897	     900	 1
     772	     897	     901	 1
     773	     897	     902	 1
     774	     897	     903	 1
     775	     904	     905	 1
     776	     904	     906	 1
     777	     904	     907	 1
     778	     904	     908	 1
     779	     904	     909	 1
     780	     904	     910	 1
     781	     911	     912	 1
     782	     911	     913	 1
     783	     911	     914	 1
     784	     911	     915	 1
     785	     911	     916	 1
     786	     911	     917	 1
     787	     918	     919	 1
     788	     918	     920	 1
     789	     918	     921	 1
     790	     918	     922	 1
     791	     918	     923	 1
     792	     918	     924	 1
     793	     925	     926	 1
     794	     925	     927	 1
     795	     925	     928	 1
     796	     925	     929	 1
     797	     925	     930	 1
     798	     925	     931	 1
     799	     932	     933	 1
     800	     932	     934	 1
     801	     932	     935	 1
     802	     932	     936	 1
     803	     932	     937	 1
     804	     932	     938	 1
     805	     939	     940	 1
     806	     939	     941	 1
     807	     939	     942	 1
     808	     939	     943	 1
     809	     939	     944	 1
     810	     939	     945	 1
     811	     946	     947	 1
     812	     946	     948	 1
     813	     946	     949	 1
     814	     946	     950	 1
     815	     946	     951	 1
     816	     946	     952	 1
     817	     953	     954	 1
     818	     953	     955	 1
     819	     953	     956	 1
     820	     953	     957	 1
     821	     953	     958	 1
     822	     953	     959	 1
     823	     960	     961	 1
     824	     960	     962	 1
     825	     960	     963	 1
     826	     960	     964	 1
     827	     960	     965	 1
     828	     960	     966	 1
     829	     967	     968	 1
     830	     967	     969	 1
     831	     967	     970	 1
     832	     967	     971	 1
     833	     967	     972	 1
     834	     967	     973	 1
     835	     974	     975	 1
     836	     974	     976	 1
     837	     974	     977	 1
     838	     974	     978	 1
     839	     974	     979	 1
     840	     974	     980	 1
     841	     981	     982	 1
     842	     981	     983	 1
     843	     981	     984	 1
     844	     981	     985	 1
     845	     981	     986	 1
     846	     981	     987	 1
     847	     988	     989	 1
     848	     988	     990	 1
     849	     988	     991	 1
     850	     988	     992	 1
     851	     988	     993	 1
     852	     988	     994	 1
     853	     995	     996	 1
     854	     995	     997	 1
     855	     995	     998	 1
     856	     995	     999	 1
     857	     995	    1000	 1
     858	     995	    1001	 1
     859	    1002	    1003	 1
     860	    1002	    1004	 1
     861	    1002	    1005	 1
     862	    1002	    1006	 1
     863	    1002	    1007	 1
     864	    1002	    1008	 1
     865	    1009	    1010	 1
     866	    1009	    1011	 1
     867	    1009	    1012	 1
     868	    1009	    1013	 1
     869	    1009	    1014	 1
     870	    1009	    1015	 1
     871	    1016	    1017	 1
     872	    1016	    1018	 1
     873	    1016	    1019	 1
     874	    1016	    1020	 1
     875	    1016	    1021	 1
     876	    1016	    1022	 1
     877	    1023	    1024	 1
     878	    1023	    1025	 1
     879	    1023	    1026	 1
     880	    1023	    1027	 1
     881	    1023	    1028	 1
     882	    1023	    1029	 1
     883	    1030	    1031	 1
     884	    1030	    1032	 1
     885	    1030	    1033	 1
     886	    1030	    1034	 1
     887	    1030	    1035	 1
     888	    1030	    1036	 1
     889	    1037	    1038	 1
     890	    1037	    1039	 1
     891	    1037	    1040	 1
     892	    1037	    1041	 1
     893	    1037	    1042	 1
     894	    1037	    1043	 1
     895	    1044	    1045	 1
     896	    1044	    1046	 1
     897	    1044	    1047	 1
     898	    1044	    1048	 1
     899	    1044	    1049	 1
     900	    1044	    1050	 1
     901	    1051	    1052	 1
     902	    1051	    1053	 1
     903	    1051	    1054	 1
     904	    1051	    1055	 1
     905	    1051	    1056	 1
     906	    1051	    1057	 1
     907	    1058	    1059	 1
     908	    1058	    1060	 1
     909	    1058	    1061	 1
     910	    1058	    1062	 1
     911	    1058	    1063	 1
     912	    1058	    1064	 1
     913	    1065	    1066	 1
     914	    1065	    1067	 1
     915	    1065	    1068	 1
     916	    1065	    1069	 1
     917	    1065	    1070	 1
     918	    1065	    1071	 1
     919	    1072	    1073	 1
     920	    1072	    1074	 1
     921	    1072	    1075	 1
     922	    1072	    1076	 1
     923	    1072	    1077	 1
     924	    1072	    1078	 1
     925	    1079	    1080	 1
     926	    1079	    1081	 1
     927	    1079	    1082	 1
     928	    1079	    1083	 1
     929	    1079	    1084	 1
     930	    1079	    1085	 1
     931	    1086	    1087	 1
     932	    1086	    1088	 1
     933	    1086	    1089	 1
     934	    1086	    1090	 1
     935	    1086	    1091	 1
     936	    1086	    1092	 1
     937	    1093	    1094	 1
     938	    1093	    1095	 1
     939	    1093	    1096	 1
     940	    1093	    1097	 1
     941	    1093	    1098	 1
     942	    1093	    1099	 1
     943	    1100	    1101	 1
     944	    1100	    1102	 1
     945	    1100	    1103	 1
     946	    1100	    1104	 1
     947	    1100	    1105	 1
     948	    1100	    1106	 1
     949	    1107	    1108	 1
     950	    1107	    1109	 1
     951	    1107	    1110	 1
     952	    1107	    1111	 1
     953	    1107	    1112	 1
     954	    1107	    1113	 1
     955	    1114	    1115	 1
     956	    1114	    1116	 1
     957	    1114	    1117	 1
     958	    1114	    1118	 1
     959	    1114	    1119	 1
     960	    1114	    1120	 1
     961	    1121	    1122	 1
     962	    1121	    1123	 1
     963	    1121	    1124	 1
     964	    1121	    1125	 1
     965	    1121	    1126	 1
     966	    1121	    1127	 1
     967	    1128	    1129	 1
     968	    1128	    1130	 1
     969	    1128	    1131	 1
     970	    1128	    1132	 1
     971	    1128	    1133	 1
     972	    1128	    1134	 1
     973	    1135	    1136	 1
     974	    1135	    1137	 1
     975	    1135	    1138	 1
     976	    1135	    1139	 1
     977	    1135	    1140	 1
     978	    1135	    1141	 1
     979	    1142	    1143	 1
     980	    1142	    1144	 1
     981	    1142	    1145	 1
     982	    1142	    1146	 1
     983	    1142	    1147	 1
     984	    1142	    1148	 1
     985	    1149	    1150	 1
     986	    1149	    1151	 1
     987	    1149	    1152	 1
     988	    1149	    1153	 1
     989	    1149	    1154	 1
     990	    1149	    1155	 1
     991	    1156	    1157	 1
     992	    1156	    1158	 1
     993	    1156	    1159	 1
     994	    1156	    1160	 1
     995	    1156	    1161	 1
     996	    1156	    1162	 1
     997	    1163	    1164	 1
     998	    1163	    1165	 1
     999	    1163	    1166	 1
    1000	    1163	    1167	 1
    1001	    1163	    1168	 1
    1002	    1163	    1169	 1
    1003	    1170	    1171	 1
    1004	    1170	    1172	 1
    1005	    1170	    1173	 1
    1006	    1170	    1174	 1
    1007	    1170	    1175	 1
    1008	    1170	    1176	 1
    1009	    1177	    1178	 1
    1010	    1177	    1179	 1
    1011	    1177	    1180	 1
    1012	    1177	    1181	 1
    1013	    1177	    1182	 1
    1014	    1177	    1183	 1
    1015	    1184	    1185	 1
    1016	    1184	    1186	 1
    1017	    1184	    1187	 1
    1018	    1184	    1188	 1
    1019	    1184	    1189	 1
    1020	    1184	    1190	 1
    1021	    1191	    1192	 1
    1022	    1191	    1193	 1
    1023	    1191	    1194	 1
    1024	    1191	    1195	 1
    1025	    1191	    1196	 1
    1026	    1191	    1197	 1
    1027	    1198	    1199	 1
    1028	    1198	    1200	 1
    1029	    1198	    1201	 1
    1030	    1198	    1202	 1
    1031	    1198	    1203	 1
    1032	    1198	    1204	 1
    1033	    1205	    1206	 1
    1034	    1205	    1207	 1
    1035	    1205	    1208	 1
    1036	    1205	    1209	 1
    1037	    1205	    1210	 1
    1038	    1205	    1211	 1
    1039	    1212	    1213	 1
    1040	    1212	    1214	 1
    1041	    1212	    1215	 1
    1042	    1212	    1216	 1
    1043	    1212	    1217	 1
    1044	    1212	    1218	 1
    1045	    1219	    1220	 1
    1046	    1219	    1221	 1
    1047	    1219	    1222	 1
    1048	    1219	    1223	 1
    1049	    1219	    1224	 1
    1050	    1219	    1225	 1
    1051	    1226	    1227	 1
    1052	    1226	    1228	 1
    1053	    1226	    1229	 1
    1054	    1226	    1230	 1
    1055	    1226	    1231	 1
    1056	    1226	    1232	 1
    1057	    1233	    1234	 1
    1058	    1233	    1235	 1
    1059	    1233	    1236	 1
    1060	    1233	    1237	 1
    1061	    1233	    1238	 1
    1062	    1233	    1239	 1
    1063	    1240	    1241	 1
    1064	    1240	    1242	 1
    1065	    1240	    1243	 1
    1066	    1240	    1244	 1
    1067	    1240	    1245	 1
    1068	    1240	    1246	 1
    1069	    1247	    1248	 1
    1070	    1247	    1249	 1
    1071	    1247	    1250	 1
    1072	    1247	    1251	 1
    1073	    1247	    1252	 1
    1074	    1247	    1253	 1
    1075	    1254	    1255	 1
    1076	    1254	    1256	 1
    1077	    1254	    1257	 1
    1078	    1254	    1258	 1
    1079	    1254	    1259	 1
    1080	    1254	    1260	 1
    1081	    1261	    1262	 1
    1082	    1261	    1263	 1
    1083	    1261	    1264	 1
    1084	    1261	    1265	 1
    1085	    1261	    1266	 1
    1086	    1261	    1267	 1
    1087	    1268	    1269	 1
    1088	    1268	    1270	 1
    1089	    1268	    1271	 1
    1090	    1268	    1272	 1
    1091	    1268	    1273	 1
    1092	    1268	    1274	 1
    1093	    1275	    1276	 1
    1094	    1275	    1277	 1
    1095	    1275	    1278	 1
    1096	    1275	    1279	 1
    1097	    1275	    1280	 1
    1098	    1275	    1281	 1
    1099	    1282	    1283	 1
    1100	    1282	    1284	 1
    1101	    1282	    1285	 1
    1102	    1282	    1286	 1
    1103	    1282	    1287	 1
    1104	    1282	    1288	 1
    1105	    1289	    1290	 1
    1106	    1289	    1291	 1
    1107	    1289	    1292	 1
    1108	    1289	    1293	 1
    1109	    1289	    1294	 1
    1110	    1289	    1295	 1
    1111	    1296	    1297	 1
    1112	    1296	    1298	 1
    1113	    1296	    1299	 1
    1114	    1296	    1300	 1
    1115	    1296	    1301	 1
    1116	    1296	    1302	 1
    1117	    1303	    1304	 1
    1118	    1303	    1305	 1
    1119	    1303	    1306	 1
    1120	    1303	    1307	 1
    1121	    1303	    1308	 1
    1122	    1303	    1309	 1
    1123	    1310	    1311	 1
    1124	    1310	    1312	 1
    1125	    1310	    1313	 1
    1126	    1310	    1314	 1
    1127	    1310	    1315	 1
    1128	    1310	    1316	 1
    1129	    1317	    1318	 1
    1130	    1317	    1319	 1
    1131	    1317	    1320	 1
    1132	    1317	    1321	 1
    1133	    1317	    1322	 1
    1134	    1317	    1323	 1
    1135	    1324	    1325	 1
    1136	    1324	    1326	 1
    1137	    1324	    1327	 1
    1138	    1324	    1328	 1
    1139	    1324	    1329	 1
    1140	    1324	    1330	 1
    1141	    1331	    1332	 1
    1142	    1331	    1333	 1
    1143	    1331	    1334	 1
    1144	    1331	    1335	 1
    1145	    1331	    1336	 1
    1146	    1331	    1337	 1
    1147	    1338	    1339	 1
    1148	    1338	    1340	 1
    1149	    1338	    1341	 1
    1150	    1338	    1342	 1
    1151	    1338	    1343	 1
    1152	    1338	    1344	 1
    1153	    1345	    1346	 1
    1154	    1345	    1347	 1
    1155	    1345	    1348	 1
    1156	    1345	    1349	 1
    1157	    1345	    1350	 1
    1158	    1345	    1351	 1
    1159	    1352	    1353	 1
    1160	    1352	    1354	 1
    1161	    1352	    1355	 1
    1162	    1352	    1356	 1
    1163	    1352	    1357	 1
    1164	    1352	    1358	 1
    1165	    1359	    1360	 1
    1166	    1359	    1361	 1
    1167	    1359	    1362	 1
    1168	    1359	    1363	 1
    1169	    1359	    1364	 1
    1170	    1359	    1365	 1
    1171	    1366	    1367	 1
    1172	    1366	    1368	 1
    1173	    1366	    1369	 1
    1174	    1366	    1370	 1
    1175	    1366	    1371	 1
    1176	    1366	    1372	 1
    1177	    1373	    1374	 1
    1178	    1373	    1375	 1
    1179	    1373	    1376	 1
    1180	    1373	    1377	 1
    1181	    1373	    1378	 1
    1182	    1373	    1379	 1
    1183	    1380	    1381	 1
    1184	    1380	    1382	 1
    1185	    1380	    1383	 1
    1186	    1380	    1384	 1
    1187	    1380	    1385	 1
    1188	    1380	    1386	 1
    1189	    1387	    1388	 1
    1190	    1387	    1389	 1
    1191	    1387	    1390	 1
    1192	    1387	    1391	 1
    1193	    1387	    1392	 1
    1194	    1387	    1393	 1
    1195	    1394	    1395	 1
    1196	    1394	    1396	 1
    1197	    1394	    1397	 1
    1198	    1394	    1398	 1
    1199	    1394	    1399	 1
    1200	    1394	    1400	 1
    1201	    1401	    1402	 1
    1202	    1401	    1403	 1
    1203	    1401	    1404	 1
    1204	    1401	    1405	 1
    1205	    1401	    1406	 1
    1206	    1401	    1407	 1
    1207	    1408	    1409	 1
    1208	    1408	    1410	 1
    1209	    1408	    1411	 1
    1210	    1408	    1412	 1
    1211	    1408	    1413	 1
    1212	    1408	    1414	 1
    1213	    1415	    1416	 1
    1214	    1415	    1417	 1
    1215	    1415	    1418	 1
    1216	    1415	    1419	 1
    1217	    1415	    1420	 1
    1218	    1415	    1421	 1
    1219	    1422	    1423	 1
    1220	    1422	    1424	 1
    1221	    1422	    1425	 1
    1222	    1422	    1426	 1
    1223	    1422	    1427	 1
    1224	    1422	    1428	 1
    1225	    1429	    1430	 1
    1226	    1429	    1431	 1
    1227	    1429	    1432	 1
    1228	    1429	    1433	 1
    1229	    1429	    1434	 1
    1230	    1429	    1435	 1
    1231	    1436	    1437	 1
    1232	    1436	    1438	 1
    1233	    1436	    1439	 1
    1234	    1436	    1440	 1
    1235	    1436	    1441	 1
    1236	    1436	    1442	 1
    1237	    1443	    1444	 1
    1238	    1443	    1445	 1
    1239	    1443	    1446	 1
    1240	    1443	    1447	 1
    1241	    1443	    1448	 1
    1242	    1443	    1449	 1
    1243	    1450	    1451	 1
    1244	    1450	    1452	 1
    1245	    1450	    1453	 1
    1246	    1450	    1454	 1
    1247	    1450	    1455	 1
    1248	    1450	    1456	 1
    1249	    1457	    1458	 1
    1250	    1457	    1459	 1
    1251	    1457	    1460	 1
    1252	    1457	    1461	 1
    1253	    1457	    1462	 1
    1254	    1457	    1463	 1
    1255	    1464	    1465	 1
    1256	    1464	    1466	 1
    1257	    1464	    1467	 1
    1258	    1464	    1468	 1
    1259	    1464	    1469	 1
    1260	    1464	    1470	 1
    1261	    1471	    1472	 1
    1262	    1471	    1473	 1
    1263	    1471	    1474	 1
    1264	    1471	    1475	 1
    1265	    1471	    1476	 1
    1266	    1471	    1477	 1
    1267	    1478	    1479	 1
    1268	    1478	    1480	 1
    1269	    1478	    1481	 1
    1270	    1478	    1482	 1
    1271	    1478	    1483	 1
    1272	    1478	    1484	 1
    1273	    1485	    1486	 1
    1274	    1485	    1487	 1
    1275	    1485	    1488	 1
    1276	    1485	    1489	 1
    1277	    1485	    1490	 1
    1278	    1485	    1491	 1
    1279	    1492	    1493	 1
    1280	    1492	    1494	 1
    1281	    1492	    1495	 1
    1282	    1492	    1496	 1
    1283	    1492	    1497	 1
    1284	    1492	    1498	 1
    1285	    1499	    1500	 1
    1286	    1499	    1501	 1
    1287	    1499	    1502	 1
    1288	    1499	    1503	 1
    1289	    1499	    1504	 1
    1290	    1499	    1505	 1
    1291	    1506	    1507	 1
    1292	    1506	    1508	 1
    1293	    1506	    1509	 1
    1294	    1506	    1510	 1
    1295	    1506	    1511	 1
    1296	    1506	    1512	 1
    1297	    1513	    1514	 1
    1298	    1513	    1515	 1
    1299	    1513	    1516	 1
    1300	    1513	    1517	 1
    1301	    1513	    1518	 1
    1302	    1513	    1519	 1
    1303	    1520	    1521	 1
    1304	    1520	    1522	 1
    1305	    1520	    1523	 1
    1306	    1520	    1524	 1
    1307	    1520	    1525	 1
    1308	    1520	    1526	 1
    1309	    1527	    1528	 1
    1310	    1527	    1529	 1
    1311	    1527	    1530	 1
    1312	    1527	    1531	 1
    1313	    1527	    1532	 1
    1314	    1527	    1533	 1
    1315	    1534	    1535	 1
    1316	    1534	    1536	 1
    1317	    1534	    1537	 1
    1318	    1534	    1538	 1
    1319	    1534	    1539	 1
    1320	    1534	    1540	 1
    1321	    1541	    1542	 1
    1322	    1541	    1543	 1
    1323	    1541	    1544	 1
    1324	    1541	    1545	 1
    1325	    1541	    1546	 1
    1326	    1541	    1547	 1
    1327	    1548	    1549	 1
    1328	    1548	    1550	 1
    1329	    1548	    1551	 1
    1330	    1548	    1552	 1
    1331	    1548	    1553	 1
    1332	    1548	    1554	 1
    1333	    1555	    1556	 1
    1334	    1555	    1557	 1
    1335	    1555	    1558	 1
    1336	    1555	    1559	 1
    1337	    1555	    1560	 1
    1338	    1555	    1561	 1
    1339	    1562	    1563	 1
    1340	    1562	    1564	 1
    1341	    1562	    1565	 1
    1342	    1562	    1566	 1
    1343	    1562	    1567	 1
    1344	    1562	    1568	 1
    1345	    1569	    1570	 1
    1346	    1569	    1571	 1
    1347	    1569	    1572	 1
    1348	    1569	    1573	 1
    1349	    1569	    1574	 1
    1350	    1569	    1575	 1
    1351	    1576	    1577	 1
    1352	    1576	    1578	 1
    1353	    1576	    1579	 1
    1354	    1576	    1580	 1
    1355	    1576	    1581	 1
    1356	    1576	    1582	 1
    1357	    1583	    1584	 1
    1358	    1583	    1585	 1
    1359	    1583	    1586	 1
    1360	    1583	    1587	 1
    1361	    1583	    1588	 1
    1362	    1583	    1589	 1
    1363	    1590	    1591	 1
    1364	    1590	    1592	 1
    1365	    1590	    1593	 1
    1366	    1590	    1594	 1
    1367	    1590	    1595	 1
    1368	    1590	    1596	 1
    1369	    1597	    1598	 1
    1370	    1597	    1599	 1
    1371	    1597	    1600	 1
    1372	    1597	    1601	 1
    1373	    1597	    1602	 1
    1374	    1597	    1603	 1
    1375	    1604	    1605	 1
    1376	    1604	    1606	 1
    1377	    1604	    1607	 1
    1378	    1604	    1608	 1
    1379	    1604	    1609	 1
    1380	    1604	    1610	 1
    1381	    1611	    1612	 1
    1382	    1611	    1613	 1
    1383	    1611	    1614	 1
    1384	    1611	    1615	 1
    1385	    1611	    1616	 1
    1386	    1611	    1617	 1
    1387	    1618	    1619	 1
    1388	    1618	    1620	 1
    1389	    1618	    1621	 1
    1390	    1618	    1622	 1
    1391	    1618	    1623	 1
    1392	    1618	    1624	 1
    1393	    1625	    1626	 1
    1394	    1625	    1627	 1
    1395	    1625	    1628	 1
    1396	    1625	    1629	 1
    1397	    1625	    1630	 1
    1398	    1625	    1631	 1
    1399	    1632	    1633	 1
    1400	    1632	    1634	 1
    1401	    1632	    1635	 1
    1402	    1632	    1636	 1
    1403	    1632	    1637	 1
    1404	    1632	    1638	 1
    1405	    1639	    1640	 1
    1406	    1639	    1641	 1
    1407	    1639	    1642	 1
    1408	    1639	    1643	 1
    1409	    1639	    1644	 1
    1410	    1639	    1645	 1
    1411	    1646	    1647	 1
    1412	    1646	    1648	 1
    1413	    1646	    1649	 1
    1414	    1646	    1650	 1
    1415	    1646	    1651	 1
    1416	    1646	    1652	 1
    1417	    1653	    1654	 1
    1418	    1653	    1655	 1
    1419	    1653	    1656	 1
    1420	    1653	    1657	 1
    1421	    1653	    1658	 1
    1422	    1653	    1659	 1
    1423	    1660	    1661	 1
    1424	    1660	    1662	 1
    1425	    1660	    1663	 1
    1426	    1660	    1664	 1
    1427	    1660	    1665	 1
    1428	    1660	    1666	 1
    1429	    1667	    1668	 1
    1430	    1667	    1669	 1
    1431	    1667	    1670	 1
    1432	    1667	    1671	 1
    1433	    1667	    1672	 1
    1434	    1667	    1673	 1
    1435	    1674	    1675	 1
    1436	    1674	    1676	 1
    1437	    1674	    1677	 1
    1438	    1674	    1678	 1
    1439	    1674	    1679	 1
    1440	    1674	    1680	 1
    1441	    1681	    1682	 1
    1442	    1681	    1683	 1
    1443	    1681	    1684	 1
    1444	    1681	    1685	 1
    1445	    1681	    1686	 1
    1446	    1681	    1687	 1
    1447	    1688	    1689	 1
    1448	    1688	    1690	 1
    1449	    1688	    1691	 1
    1450	    1688	    1692	 1
    1451	    1688	    1693	 1
    1452	    1688	    1694	 1
    1453	    1695	    1696	 1
    1454	    1695	    1697	 1
    1455	    1695	    1698	 1
    1456	    1695	    1699	 1
    1457	    1695	    1700	 1
    1458	    1695	    1701	 1
    1459	    1702	    1703	 1
    1460	    1702	    1704	 1
    1461	    1702	    1705	 1
    1462	    1702	    1706	 1
    1463	    1702	    1707	 1
    1464	    1702	    1708	 1
    1465	    1709	    1710	 1
    1466	    1709	    1711	 1
    1467	    1709	    1712	 1
    1468	    1709	    1713	 1
    1469	    1709	    1714	 1
    1470	    1709	    1715	 1
    1471	    1716	    1717	 1
    1472	    1716	    1718	 1
    1473	    1716	    1719	 1
    1474	    1716	    1720	 1
    1475	    1716	    1721	 1
    1476	    1716	    1722	 1
    1477	    1723	    1724	 1
    1478	    1723	    1725	 1
    1479	    1723	    1726	 1
    1480	    1723	    1727	 1
    1481	    1723	    1728	 1
    1482	    1723	    1729	 1
    1483	    1730	    1731	 1
    1484	    1730	    1732	 1
    1485	    1730	    1733	 1
    1486	    1730	    1734	 1
    1487	    1730	    1735	 1
    1488	    1730	    1736	 1
    1489	    1737	    1738	 1
    1490	    1737	    1739	 1
    1491	    1737	    1740	 1
    1492	    1737	    1741	 1
    1493	    1737	    1742	 1
    1494	    1737	    1743	 1
    1495	    1744	    1745	 1
    1496	    1744	    1746	 1
    1497	    1744	    1747	 1
    1498	    1744	    1748	 1
    1499	    1744	    1749	 1
    1500	    1744	    1750	 1
    1501	    1751	    1752	 1
    1502	    1751	    1753	 1
    1503	    1751	    1754	 1
    1504	    1751	    1755	 1
    1505	    1751	    1756	 1
    1506	    1751	    1757	 1
    1507	    1758	    1759	 1
    1508	    1758	    1760	 1
    1509	    1758	    1761	 1
    1510	    1758	    1762	 1
    1511	    1758	    1763	 1
    1512	    1758	    1764	 1
    1513	    1765	    1766	 1
    1514	    1765	    1767	 1
    1515	    1765	    1768	 1
    1516	    1765	    1769	 1
    1517	    1765	    1770	 1
    1518	    1765	    1771	 1
    1519	    1772	    1773	 1
    1520	    1772	    1774	 1
    1521	    1772	    1775	 1
    1522	    1772	    1776	 1
    1523	    1772	    1777	 1
    1524	    1772	    1778	 1
    1525	    1779	    1780	 1
    1526	    1779	    1781	 1
    1527	    1779	    1782	 1
    1528	    1779	    1783	 1
    1529	    1779	    1784	 1
    1530	    1779	    1785	 1
    1531	    1786	    1787	 1
    1532	    1786	    1788	 1
    1533	    1786	    1789	 1
    1534	    1786	    1790	 1
    1535	    1786	    1791	 1
    1536	    1786	    1792	 1
    1537	    1793	    1794	 1
    1538	    1793	    1795	 1
    1539	    1793	    1796	 1
    1540	    1793	    1797	 1
    1541	    1793	    1798	 1
    1542	    1793	    1799	 1
    1543	    1800	    1801	 1
    1544	    1800	    1802	 1
    1545	    1800	    1803	 1
    1546	    1800	    1804	 1
    1547	    1800	    1805	 1
    1548	    1800	    1806	 1
    1549	    1807	    1808	 1
    1550	    1807	    1809	 1
    1551	    1807	    1810	 1
    1552	    1807	    1811	 1
    1553	    1807	    1812	 1
    1554	    1807	    1813	 1
    1555	    1814	    1815	 1
    1556	    1814	    1816	 1
    1557	    1814	    1817	 1
    1558	    1814	    1818	 1
    1559	    1814	    1819	 1
    1560	    1814	    1820	 1
    1561	    1821	    1822	 1
    1562	    1821	    1823	 1
    1563	    1821	    1824	 1
    1564	    1821	    1825	 1
    1565	    1821	    1826	 1
    1566	    1821	    1827	 1
    1567	    1828	    1829	 1
    1568	    1828	    1830	 1
    1569	    1828	    1831	 1
    1570	    1828	    1832	 1
    1571	    1828	    1833	 1
    1572	    1828	    1834	 1
    1573	    1835	    1836	 1
    1574	    1835	    1837	 1
    1575	    1835	    1838	 1
    1576	    1835	    1839	 1
    1577	    1835	    1840	 1
    1578	    1835	    1841	 1
    1579	    1842	    1843	 1
    1580	    1842	    1844	 1
    1581	    1842	    1845	 1
    1582	    1842	    1846	 1
    1583	    1842	    1847	 1
    1584	    1842	    1848	 1
    1585	    1849	    1850	 1
    1586	    1849	    1851	 1
    1587	    1849	    1852	 1
    1588	    1849	    1853	 1
    1589	    1849	    1854	 1
    1590	    1849	    1855	 1
    1591	    1856	    1857	 1
    1592	    1856	    1858	 1
    1593	    1856	    1859	 1
    1594	    1856	    1860	 1
    1595	    1856	    1861	 1
    1596	    1856	    1862	 1
    1597	    1863	    1864	 1
    1598	    1863	    1865	 1
    1599	    1863	    1866	 1
    1600	    1863	    1867	 1
    1601	    1863	    1868	 1
    1602	    1863	    1869	 1
    1603	    1870	    1871	 1
    1604	    1870	    1872	 1
    1605	    1870	    1873	 1
    1606	    1870	    1874	 1
    1607	    1870	    1875	 1
    1608	    1870	    1876	 1
    1609	    1877	    1878	 1
    1610	    1877	    1879	 1
    1611	    1877	    1880	 1
    1612	    1877	    1881	 1
    1613	    1877	    1882	 1
    1614	    1877	    1883	 1
    1615	    1884	    1885	 1
    1616	    1884	    1886	 1
    1617	    1884	    1887	 1
    1618	    1884	    1888	 1
    1619	    1884	    1889	 1
    1620	    1884	    1890	 1
    1621	    1891	    1892	 1
    1622	    1891	    1893	 1
    1623	    1891	    1894	 1
    1624	    1891	    1895	 1
    1625	    1891	    1896	 1
    1626	    1891	    1897	 1
    1627	    1898	    1899	 1
    1628	    1898	    1900	 1
    1629	    1898	    1901	 1
    1630	    1898	    1902	 1
    1631	    1898	    1903	 1
    1632	    1898	    1904	 1
    1633	    1905	    1906	 1
    1634	    1905	    1907	 1
    1635	    1905	    1908	 1
    1636	    1905	    1909	 1
    1637	    1905	    1910	 1
    1638	    1905	    1911	 1
    1639	    1912	    1913	 1
    1640	    1912	    1914	 1
    1641	    1912	    1915	 1
    1642	    1912	    1916	 1
    1643	    1912	    1917	 1
    1644	    1912	    1918	 1
    1645	    1919	    1920	 1
    1646	    1919	    1921	 1
    1647	    1919	    1922	 1
    1648	    1919	    1923	 1
    1649	    1919	    1924	 1
    1650	    1919	    1925	 1
    1651	    1926	    1927	 1
    1652	    1926	    1928	 1
    1653	    1926	    1929	 1
    1654	    1926	    1930	 1
    1655	    1926	    1931	 1
    1656	    1926	    1932	 1
    1657	    1933	    1934	 1
    1658	    1933	    1935	 1
    1659	    1933	    1936	 1
    1660	    1933	    1937	 1
    1661	    1933	    1938	 1
    1662	    1933	    1939	 1
    1663	    1940	    1941	 1
    1664	    1940	    1942	 1
    1665	    1940	    1943	 1
    1666	    1940	    1944	 1
    1667	    1940	    1945	 1
    1668	    1940	    1946	 1
    1669	    1947	    1948	 1
    1670	    1947	    1949	 1
    1671	    1947	    1950	 1
    1672	    1947	    1951	 1
    1673	    1947	    1952	 1
    1674	    1947	    1953	 1
    1675	    1954	    1955	 1
    1676	    1954	    1956	 1
    1677	    1954	    1957	 1
    1678	    1954	    1958	 1
    1679	    1954	    1959	 1
    1680	    1954	    1960	 1
    1681	    1961	    1962	 1
    1682	    1961	    1963	 1
    1683	    1961	    1964	 1
    1684	    1961	    1965	 1
    1685	    1961	    1966	 1
    1686	    1961	    1967	 1
    1687	    1968	    1969	 1
    1688	    1968	    1970	 1
    1689	    1968	    1971	 1
    1690	    1968	    1972	 1
    1691	    1968	    1973	 1
    1692	    1968	    1974	 1
    1693	    1975	    1976	 1
    1694	    1975	    1977	 1
    1695	    1975	    1978	 1
    1696	    1975	    1979	 1
    1697	    1975	    1980	 1
    1698	    1975	    1981	 1
    1699	    1982	    1983	 1
    1700	    1982	    1984	 1
    1701	    1982	    1985	 1
    1702	    1982	    1986	 1
    1703	    1982	    1987	 1
    1704	    1982	    1988	 1
    1705	    1989	    1990	 1
    1706	    1989	    1991	 1
    1707	    1989	    1992	 1
    1708	    1989	    1993	 1
    1709	    1989	    1994	 1
    1710	    1989	    1995	 1
    1711	    1996	    1997	 1
    1712	    1996	    1998	 1
    1713	    1996	    1999	 1
    1714	    1996	    2000	 1
    1715	    1996	    2001	 1
    1716	    1996	    2002	 1
    1717	    2003	    2004	 1
    1718	    2003	    2005	 1
    1719	    2003	    2006	 1
    1720	    2003	    2007	 1
    1721	    2003	    2008	 1
    1722	    2003	    2009	 1
    1723	    2010	    2011	 1
    1724	    2010	    2012	 1
    1725	    2010	    2013	 1
    1726	    2010	    2014	 1
    1727	    2010	    2015	 1
    1728	    2010	    2016	 1
    1729	    2017	    2018	 1
    1730	    2017	    2019	 1
    1731	    2017	    2020	 1
    1732	    2017	    2021	 1
    1733	    2017	    2022	 1
    1734	    2017	    2023	 1
    1735	    2024	    2025	 1
    1736	    2024	    2026	 1
    1737	    2024	    2027	 1
    1738	    2024	    2028	 1
    1739	    2024	    2029	 1
    1740	    2024	    2030	 1
    1741	    2031	    2032	 1
    1742	    2031	    2033	 1
    1743	    2031	    2034	 1
    1744	    2031	    2035	 1
    1745	    2031	    2036	 1
    1746	    2031	    2037	 1
    1747	    2038	    2039	 1
    1748	    2038	    2040	 1
    1749	    2038	    2041	 1
    1750	    2038	    2042	 1
    1751	    2038	    2043	 1
    1752	    2038	    2044	 1
    1753	    2045	    2046	 1
    1754	    2045	    2047	 1
    1755	    2045	    2048	 1
    1756	    2045	    2049	 1
    1757	    2045	    2050	 1
    1758	    2045	    2051	 1
    1759	    2052	    2053	 1
    1760	    2052	    2054	 1
    1761	    2052	    2055	 1
    1762	    2052	    2056	 1
    1763	    2052	    2057	 1
    1764	    2052	    2058	 1
    1765	    2059	    2060	 1
    1766	    2059	    2061	 1
    1767	    2059	    2062	 1
    1768	    2059	    2063	 1
    1769	    2059	    2064	 1
    1770	    2059	    2065	 1
    1771	    2066	    2067	 1
    1772	    2066	    2068	 1
    1773	    2066	    2069	 1
    1774	    2066	    2070	 1
    1775	    2066	    2071	 1
    1776	    2066	    2072	 1
    1777	    2073	    2074	 1
    1778	    2073	    2075	 1
    1779	    2073	    2076	 1
    1780	    2073	    2077	 1
    1781	    2073	    2078	 1
    1782	    2073	    2079	 1
    1783	    2080	    2081	 1
    1784	    2080	    2082	 1
    1785	    2080	    2083	 1
    1786	    2080	    2084	 1
    1787	    2080	    2085	 1
    1788	    2080	    2086	 1
    1789	    2087	    2088	 1
    1790	    2087	    2089	 1
    1791	    2087	    2090	 1
    1792	    2087	    2091	 1
    1793	    2087	    2092	 1
    1794	    2087	    2093	 1
    1795	    2094	    2095	 1
    1796	    2094	    2096	 1
    1797	    2094	    2097	 1
    1798	    2094	    2098	 1
    1799	    2094	    2099	 1
    1800	    2094	    2100	 1
    1801	    2101	    2102	 1
    1802	    2101	    2103	 1
    1803	    2101	    2104	 1
    1804	    2101	    2105	 1
    1805	    2101	    2106	 1
    1806	    2101	    2107	 1
    1807	    2108	    2109	 1
    1808	    2108	    2110	 1
    1809	    2108	    2111	 1
    1810	    2108	    2112	 1
    1811	    2108	    2113	 1
    1812	    2108	    2114	 1
    1813	    2115	    2116	 1
    1814	    2115	    2117	 1
    1815	    2115	    2118	 1
    1816	    2115	    2119	 1
    1817	    2115	    2120	 1
    1818	    2115	    2121	 1
    1819	    2122	    2123	 1
    1820	    2122	    2124	 1
    1821	    2122	    2125	 1
    1822	    2122	    2126	 1
    1823	    2122	    2127	 1
    1824	    2122	    2128	 1
    1825	    2129	    2130	 1
    1826	    2129	    2131	 1
    1827	    2129	    2132	 1
    1828	    2129	    2133	 1
    1829	    2129	    2134	 1
    1830	    2129	    2135	 1
    1831	    2136	    2137	 1
    1832	    2136	    2138	 1
    1833	    2136	    2139	 1
    1834	    2136	    2140	 1
    1835	    2136	    2141	 1
    1836	    2136	    2142	 1
    1837	    2143	    2144	 1
    1838	    2143	    2145	 1
    1839	    2143	    2146	 1
    1840	    2143	    2147	 1
    1841	    2143	    2148	 1
    1842	    2143	    2149	 1
    1843	    2150	    2151	 1
    1844	    2150	    2152	 1
    1845	    2150	    2153	 1
    1846	    2150	    2154	 1
    1847	    2150	    2155	 1
    1848	    2150	    2156	 1
    1849	    2157	    2158	 1
    1850	    2157	    2159	 1
    1851	    2157	    2160	 1
    1852	    2157	    2161	 1
    1853	    2157	    2162	 1
    1854	    2157	    2163	 1
    1855	    2164	    2165	 1
    1856	    2164	    2166	 1
    1857	    2164	    2167	 1
    1858	    2164	    2168	 1
    1859	    2164	    2169	 1
    1860	    2164	    2170	 1
    1861	    2171	    2172	 1
    1862	    2171	    2173	 1
    1863	    2171	    2174	 1
    1864	    2171	    2175	 1
    1865	    2171	    2176	 1
    1866	    2171	    2177	 1
    1867	    2178	    2179	 1
    1868	    2178	    2180	 1
    1869	    2178	    2181	 1
    1870	    2178	    2182	 1
    1871	    2178	    2183	 1
    1872	    2178	    2184	 1
    1873	    2185	    2186	 1
    1874	    2185	    2187	 1
    1875	    2185	    2188	 1
    1876	    2185	    2189	 1
    1877	    2185	    2190	 1
    1878	    2185	    2191	 1
    1879	    2192	    2193	 1
    1880	    2192	    2194	 1
    1881	    2192	    2195	 1
    1882	    2192	    2196	 1
    1883	    2192	    2197	 1
    1884	    2192	    2198	 1
    1885	    2199	    2200	 1
    1886	    2199	    2201	 1
    1887	    2199	    2202	 1
    1888	    2199	    2203	 1
    1889	    2199	    2204	 1
    1890	    2199	    2205	 1
    1891	    2206	    2207	 1
    1892	    2206	    2208	 1
    1893	    2206	    2209	 1
    1894	    2206	    2210	 1
    1895	    2206	    2211	 1
    1896	    2206	    2212	 1
    1897	    2213	    2214	 1
    1898	    2213	    2215	 1
    1899	    2213	    2216	 1
    1900	    2213	    2217	 1
    1901	    2213	    2218	 1
    1902	    2213	    2219	 1
    1903	    2220	    2221	 1
    1904	    2220	    2222	 1
    1905	    2220	    2223	 1
    1906	    2220	    2224	 1
    1907	    2220	    2225	 1
    1908	    2220	    2226	 1
    1909	    2227	    2228	 1
    1910	    2227	    2229	 1
    1911	    2227	    2230	 1
    1912	    2227	    2231	 1
    1913	    2227	    2232	 1
    1914	    2227	    2233	 1
    1915	    2234	    2235	 1
    1916	    2234	    2236	 1
    1917	    2234	    2237	 1
    1918	    2234	    2238	 1
    1919	    2234	    2239	 1
    1920	    2234	    2240	 1
    1921	    2241	    2242	 1
    1922	    2241	    2243	 1
    1923	    2241	    2244	 1
    1924	    2241	    2245	 1
    1925	    2241	    2246	 1
    1926	    2241	    2247	 1
    1927	    2248	    2249	 1
    1928	    2248	    2250	 1
    1929	    2248	    2251	 1
    1930	    2248	    2252	 1
    1931	    2248	    2253	 1
    1932	    2248	    2254	 1
    1933	    2255	    2256	 1
    1934	    2255	    2257	 1
    1935	    2255	    2258	 1
    1936	    2255	    2259	 1
    1937	    2255	    2260	 1
    1938	    2255	    2261	 1
    1939	    2262	    2263	 1
    1940	    2262	    2264	 1
    1941	    2262	    2265	 1
    1942	    2262	    2266	 1
    1943	    2262	    2267	 1
    1944	    2262	    2268	 1
    1945	    2269	    2270	 1
    1946	    2269	    2271	 1
    1947	    2269	    2272	 1
    1948	    2269	    2273	 1
    1949	    2269	    2274	 1
    1950	    2269	    2275	 1
    1951	    2276	    2277	 1
    1952	    2276	    2278	 1
    1953	    2276	    2279	 1
    1954	    2276	    2280	 1
    1955	    2276	    2281	 1
    1956	    2276	    2282	 1
    1957	    2283	    2284	 1
    1958	    2283	    2285	 1
    1959	    2283	    2286	 1
    1960	    2283	    2287	 1
    1961	    2283	    2288	 1
    1962	    2283	    2289	 1
    1963	    2290	    2291	 1
    1964	    2290	    2292	 1
    1965	    2290	    2293	 1
    1966	    2290	    2294	 1
    1967	    2290	    2295	 1
    1968	    2290	    2296	 1
    1969	    2297	    2298	 1
    1970	    2297	    2299	 1
    1971	    2297	    2300	 1
    1972	    2297	    2301	 1
    1973	    2297	    2302	 1
    1974	    2297	    2303	 1
    1975	    2304	    2305	 1
    1976	    2304	    2306	 1
    1977	    2304	    2307	 1
    1978	    2304	    2308	 1
    1979	    2304	    2309	 1
    1980	    2304	    2310	 1
    1981	    2311	    2312	 1
    1982	    2311	    2313	 1
    1983	    2311	    2314	 1
    1984	    2311	    2315	 1
    1985	    2311	    2316	 1
    1986	    2311	    2317	 1
    1987	    2318	    2319	 1
    1988	    2318	    2320	 1
    1989	    2318	    2321	 1
    1990	    2318	    2322	 1
    1991	    2318	    2323	 1
    1992	    2318	    2324	 1
    1993	    2325	    2326	 1
    1994	    2325	    2327	 1
    1995	    2325	    2328	 1
    1996	    2325	    2329	 1
    1997	    2325	    2330	 1
    1998	    2325	    2331	 1
    1999	    2332	    2333	 1
    2000	    2332	    2334	 1
    2001	    2332	    2335	 1
    2002	    2332	    2336	 1
    2003	    2332	    2337	 1
    2004	    2332	    2338	 1
    2005	    2339	    2340	 1
    2006	    2339	    2341	 1
    2007	    2339	    2342	 1
    2008	    2339	    2343	 1
    2009	    2339	    2344	 1
    2010	    2339	    2345	 1
    2011	    2346	    2347	 1
    2012	    2346	    2348	 1
    2013	    2346	    2349	 1
    2014	    2346	    2350	 1
    2015	    2346	    2351	 1
    2016	    2346	    2352	 1
    2017	    2353	    2354	 1
    2018	    2353	    2355	 1
    2019	    2353	    2356	 1
    2020	    2353	    2357	 1
    2021	    2353	    2358	 1
    2022	    2353	    2359	 1
    2023	    2360	    2361	 1
    2024	    2360	    2362	 1
    2025	    2360	    2363	 1
    2026	    2360	    2364	 1
    2027	    2360	    2365	 1
    2028	    2360	    2366	 1
    2029	    2367	    2368	 1
    2030	    2367	    2369	 1
    2031	    2367	    2370	 1
    2032	    2367	    2371	 1
    2033	    2367	    2372	 1
    2034	    2367	    2373	 1
    2035	    2374	    2375	 1
    2036	    2374	    2376	 1
    2037	    2374	    2377	 1
    2038	    2374	    2378	 1
    2039	    2374	    2379	 1
    2040	    2374	    2380	 1
    2041	    2381	    2382	 1
    2042	    2381	    2383	 1
    2043	    2381	    2384	 1
    2044	    2381	    2385	 1
    2045	    2381	    2386	 1
    2046	    2381	    2387	 1
    2047	    2388	    2389	 1
    2048	    2388	    2390	 1
    2049	    2388	    2391	 1
    2050	    2388	    2392	 1
    2051	    2388	    2393	 1
    2052	    2388	    2394	 1
    2053	    2395	    2396	 1
    2054	    2395	    2397	 1
    2055	    2395	    2398	 1
    2056	    2395	    2399	 1
    2057	    2395	    2400	 1
    2058	    2395	    2401	 1
    2059	    2402	    2403	 1
    2060	    2402	    2404	 1
    2061	    2402	    2405	 1
    2062	    2402	    2406	 1
    2063	    2402	    2407	 1
    2064	    2402	    2408	 1
    2065	    2409	    2410	 1
    2066	    2409	    2411	 1
    2067	    2409	    2412	 1
    2068	    2409	    2413	 1
    2069	    2409	    2414	 1
    2070	    2409	    2415	 1
    2071	    2416	    2417	 1
    2072	    2416	    2418	 1
    2073	    2416	    2419	 1
    2074	    2416	    2420	 1
    2075	    2416	    2421	 1
    2076	    2416	    2422	 1
    2077	    2423	    2424	 1
    2078	    2423	    2425	 1
    2079	    2423	    2426	 1
    2080	    2423	    2427	 1
    2081	    2423	    2428	 1
    2082	    2423	    2429	 1
    2083	    2430	    2431	 1
    2084	    2430	    2432	 1
    2085	    2430	    2433	 1
    2086	    2430	    2434	 1
    2087	    2430	    2435	 1
    2088	    2430	    2436	 1
    2089	    2437	    2438	 1
    2090	    2437	    2439	 1
    2091	    2437	    2440	 1
    2092	    2437	    2441	 1
    2093	    2437	    2442	 1
    2094	    2437	    2443	 1
    2095	    2444	    2445	 1
    2096	    2444	    2446	 1
    2097	    2444	    2447	 1
    2098	    2444	    2448	 1
    2099	    2444	    2449	 1
    2100	    2444	    2450	 1
    2101	    2451	    2452	 1
    2102	    2451	    2453	 1
    2103	    2451	    2454	 1
    2104	    2451	    2455	 1
    2105	    2451	    2456	 1
    2106	    2451	    2457	 1
    2107	    2458	    2459	 1
    2108	    2458	    2460	 1
    2109	    2458	    2461	 1
    2110	    2458	    2462	 1
    2111	    2458	    2463	 1
    2112	    2458	    2464	 1
    2113	    2465	    2466	 1
    2114	    2465	    2467	 1
    2115	    2465	    2468	 1
    2116	    2465	    2469	 1
    2117	    2465	    2470	 1
    2118	    2465	    2471	 1
    2119	    2472	    2473	 1
    2120	    2472	    2474	 1
    2121	    2472	    2475	 1
    2122	    2472	    2476	 1
    2123	    2472	    2477	 1
    2124	    2472	    2478	 1
    2125	    2479	    2480	 1
    2126	    2479	    2481	 1
    2127	    2479	    2482	 1
    2128	    2479	    2483	 1
    2129	    2479	    2484	 1
    2130	    2479	    2485	 1
    2131	    2486	    2487	 1
    2132	    2486	    2488	 1
    2133	    2486	    2489	 1
    2134	    2486	    2490	 1
    2135	    2486	    2491	 1
    2136	    2486	    2492	 1
    2137	    2493	    2494	 1
    2138	    2493	    2495	 1
    2139	    2493	    2496	 1
    2140	    2493	    2497	 1
    2141	    2493	    2498	 1
    2142	    2493	    2499	 1
    2143	    2500	    2501	 1
    2144	    2500	    2502	 1
    2145	    2500	    2503	 1
    2146	    2500	    2504	 1
    2147	    2500	    2505	 1
    2148	    2500	    2506	 1
    2149	    2507	    2508	 1
    2150	    2507	    2509	 1
    2151	    2507	    2510	 1
    2152	    2507	    2511	 1
    2153	    2507	    2512	 1
    2154	    2507	    2513	 1
    2155	    2514	    2515	 1
    2156	    2514	    2516	 1
    2157	    2514	    2517	 1
    2158	    2514	    2518	 1
    2159	    2514	    2519	 1
    2160	    2514	    2520	 1
    2161	    2521	    2522	 1
    2162	    2521	    2523	 1
    2163	    2521	    2524	 1
    2164	    2521	    2525	 1
    2165	    2521	    2526	 1
    2166	    2521	    2527	 1
    2167	    2528	    2529	 1
    2168	    2528	    2530	 1
    2169	    2528	    2531	 1
    2170	    2528	    2532	 1
    2171	    2528	    2533	 1
    2172	    2528	    2534	 1
    2173	    2535	    2536	 1
    2174	    2535	    2537	 1
    2175	    2535	    2538	 1
    2176	    2535	    2539	 1
    2177	    2535	    2540	 1
    2178	    2535	    2541	 1
    2179	    2542	    2543	 1
    2180	    2542	    2544	 1
    2181	    2542	    2545	 1
    2182	    2542	    2546	 1
    2183	    2542	    2547	 1
    2184	    2542	    2548	 1
    2185	    2549	    2550	 1
    2186	    2549	    2551	 1
    2187	    2549	    2552	 1
    2188	    2549	    2553	 1
    2189	    2549	    2554	 1
    2190	    2549	    2555	 1
    2191	    2556	    2557	 1
    2192	    2556	    2558	 1
    2193	    2556	    2559	 1
    2194	    2556	    2560	 1
    2195	    2556	    2561	 1
    2196	    2556	    2562	 1
    2197	    2563	    2564	 1
    2198	    2563	    2565	 1
    2199	    2563	    2566	 1
    2200	    2563	    2567	 1
    2201	    2563	    2568	 1
    2202	    2563	    2569	 1
    2203	    2570	    2571	 1
    2204	    2570	    2572	 1
    2205	    2570	    2573	 1
    2206	    2570	    2574	 1
    2207	    2570	    2575	 1
    2208	    2570	    2576	 1
    2209	    2577	    2578	 1
    2210	    2577	    2579	 1
    2211	    2577	    2580	 1
    2212	    2577	    2581	 1
    2213	    2577	    2582	 1
    2214	    2577	    2583	 1
    2215	    2584	    2585	 1
    2216	    2584	    2586	 1
    2217	    2584	    2587	 1
    2218	    2584	    2588	 1
    2219	    2584	    2589	 1
    2220	    2584	    2590	 1
    2221	    2591	    2592	 1
    2222	    2591	    2593	 1
    2223	    2591	    2594	 1
    2224	    2591	    2595	 1
    2225	    2591	    2596	 1
    2226	    2591	    2597	 1
    2227	    2598	    2599	 1
    2228	    2598	    2600	 1
    2229	    2598	    2601	 1
    2230	    2598	    2602	 1
    2231	    2598	    2603	 1
    2232	    2598	    2604	 1
    2233	    2605	    2606	 1
    2234	    2605	    2607	 1
    2235	    2605	    2608	 1
    2236	    2605	    2609	 1
    2237	    2605	    2610	 1
    2238	    2605	    2611	 1
    2239	    2612	    2613	 1
    2240	    2612	    2614	 1
    2241	    2612	    2615	 1
    2242	    2612	    2616	 1
    2243	    2612	    2617	 1
    2244	    2612	    2618	 1
    2245	    2619	    2620	 1
    2246	    2619	    2621	 1
    2247	    2619	    2622	 1
    2248	    2619	    2623	 1
    2249	    2619	    2624	 1
    2250	    2619	    2625	 1
    2251	    2626	    2627	 1
    2252	    2626	    2628	 1
    2253	    2626	    2629	 1
    2254	    2626	    2630	 1
    2255	    2626	    2631	 1
    2256	    2626	    2632	 1
    2257	    2633	    2634	 1
    2258	    2633	    2635	 1
    2259	    2633	    2636	 1
    2260	    2633	    2637	 1
    2261	    2633	    2638	 1
    2262	    2633	    2639	 1
    2263	    2640	    2641	 1
    2264	    2640	    2642	 1
    2265	    2640	    2643	 1
    2266	    2640	    2644	 1
    2267	    2640	    2645	 1
    2268	    2640	    2646	 1
    2269	    2647	    2648	 1
    2270	    2647	    2649	 1
    2271	    2647	    2650	 1
    2272	    2647	    2651	 1
    2273	    2647	    2652	 1
    2274	    2647	    2653	 1
    2275	    2654	    2655	 1
    2276	    2654	    2656	 1
    2277	    2654	    2657	 1
    2278	    2654	    2658	 1
    2279	    2654	    2659	 1
    2280	    2654	    2660	 1
    2281	    2661	    2662	 1
    2282	    2661	    2663	 1
    2283	    2661	    2664	 1
    2284	    2661	    2665	 1
    2285	    2661	    2666	 1
    2286	    2661	    2667	 1
    2287	    2668	    2669	 1
    2288	    2668	    2670	 1
    2289	    2668	    2671	 1
    2290	    2668	    2672	 1
    2291	    2668	    2673	 1
    2292	    2668	    2674	 1
    2293	    2675	    2676	 1
    2294	    2675	    2677	 1
    2295	    2675	    2678	 1
    2296	    2675	    2679	 1
    2297	    2675	    2680	 1
    2298	    2675	    2681	 1
    2299	    2682	    2683	 1
    2300	    2682	    2684	 1
    2301	    2682	    2685	 1
    2302	    2682	    2686	 1
    2303	    2682	    2687	 1
    2304	    2682	    2688	 1
    2305	    2689	    2690	 1
    2306	    2689	    2691	 1
    2307	    2689	    2692	 1
    2308	    2689	    2693	 1
    2309	    2689	    2694	 1
    2310	    2689	    2695	 1
    2311	    2696	    2697	 1
    2312	    2696	    2698	 1
    2313	    2696	    2699	 1
    2314	    2696	    2700	 1
    2315	    2696	    2701	 1
    2316	    2696	    2702	 1
    2317	    2703	    2704	 1
    2318	    2703	    2705	 1
    2319	    2703	    2706	 1
    2320	    2703	    2707	 1
    2321	    2703	    2708	 1
    2322	    2703	    2709	 1
    2323	    2710	    2711	 1
    2324	    2710	    2712	 1
    2325	    2710	    2713	 1
    2326	    2710	    2714	 1
    2327	    2710	    2715	 1
    2328	    2710	    2716	 1
    2329	    2717	    2718	 1
    2330	    2717	    2719	 1
    2331	    2717	    2720	 1
    2332	    2717	    2721	 1
    2333	    2717	    2722	 1
    2334	    2717	    2723	 1
    2335	    2724	    2725	 1
    2336	    2724	    2726	 1
    2337	    2724	    2727	 1
    2338	    2724	    2728	 1
    2339	    2724	    2729	 1
    2340	    2724	    2730	 1
    2341	    2731	    2732	 1
    2342	    2731	    2733	 1
    2343	    2731	    2734	 1
    2344	    2731	    2735	 1
    2345	    2731	    2736	 1
    2346	    2731	    2737	 1
    2347	    2738	    2739	 1
    2348	    2738	    2740	 1
    2349	    2738	    2741	 1
    2350	    2738	    2742	 1
    2351	    2738	    2743	 1
    2352	    2738	    2744	 1
    2353	    2745	    2746	 1
    2354	    2745	    2747	 1
    2355	    2745	    2748	 1
    2356	    2745	    2749	 1
    2357	    2745	    2750	 1
    2358	    2745	    2751	 1
    2359	    2752	    2753	 1
    2360	    2752	    2754	 1
    2361	    2752	    2755	 1
    2362	    2752	    2756	 1
    2363	    2752	    2757	 1
    2364	    2752	    2758	 1
    2365	    2759	    2760	 1
    2366	    2759	    2761	 1
    2367	    2759	    2762	 1
    2368	    2759	    2763	 1
    2369	    2759	    2764	 1
    2370	    2759	    2765	 1
    2371	    2766	    2767	 1
    2372	    2766	    2768	 1
    2373	    2766	    2769	 1
    2374	    2766	    2770	 1
    2375	    2766	    2771	 1
    2376	    2766	    2772	 1
    2377	    2773	    2774	 1
    2378	    2773	    2775	 1
    2379	    2773	    2776	 1
    2380	    2773	    2777	 1
    2381	    2773	    2778	 1
    2382	    2773	    2779	 1
    2383	    2780	    2781	 1
    2384	    2780	    2782	 1
    2385	    2780	    2783	 1
    2386	    2780	    2784	 1
    2387	    2780	    2785	 1
    2388	    2780	    2786	 1
    2389	    2787	    2788	 1
    2390	    2787	    2789	 1
    2391	    2787	    2790	 1
    2392	    2787	    2791	 1
    2393	    2787	    2792	 1
    2394	    2787	    2793	 1
    2395	    2794	    2795	 1
    2396	    2794	    2796	 1
    2397	    2794	    2797	 1
    2398	    2794	    2798	 1
    2399	    2794	    2799	 1
    2400	    2794	    2800	 1
    2401	     747	    1640	 1
    2402	     661	    1103	 1
    2403	    2349	    2733	 1
    2404	    1131	    1977	 1
    2405	     417	     891	 1
    2406	    1915	    2063	 1
@<TRIPOS>FF_PBC
    v1.0	       1	     -20	     -20	     -20	      20	      20	      20
12000
@<TRIPOS>MOLECULE
Nanorod
2800	2409
SMALL
NO_CHARGES
@<TRIPOS>ATOM
     1	1	-16.9709	-3.20503	 18.5051	N.3
     2	2	-17.0546	-2.66654	 17.5438	C.1
     3	2	-17.8688	-2.96301	 17.9083	C.1
     4	2	-16.4001	-2.50283	 19.1391	C.1
     5	2	-17.2143	 -2.7993	 19.5035	C.1
     6	2	-16.2367	-4.00101	 18.2855	C.1
     7	2	-17.0509	-4.29748	   18.65	C.1
     8	1	 2.93463	 11.5105	 8.94818	N.3
     9	2	 2.90158	 12.4036	 9.59791	C.1
    10	2	 2.56852	 11.6147	 9.98549	C.1
    11	2	 3.99211	 11.4681	 8.63071	C.1
    12	2	 3.65904	 10.6792	 9.01829	C.1
    13	2	  2.4098	 11.8432	 8.03456	C.1
    14	2	 2.07673	 11.0543	 8.42214	C.1
    15	1	 4.95225	 8.17142	-11.9664	N.3
    16	2	 4.14337	 8.89786	-12.1637	C.1
    17	2	 5.01287	 9.25486	-12.1748	C.1
    18	2	 4.76201	  7.3742	-12.7074	C.1
    19	2	 5.63151	 7.73119	-12.7185	C.1
    20	2	 4.64711	 7.70672	-11.0116	C.1
    21	2	 5.51661	 8.06372	-11.0226	C.1
    22	1	 6.53835	-17.7318	-15.6575	N.3
    23	2	 5.55332	-17.8477	-16.1445	C.1
    24	2	 6.18565	-18.5094	-16.3589	C.1
    25	2	 6.28263	-17.6559	-14.5852	C.1
    26	2	 6.91496	-18.3176	-14.7996	C.1
    27	2	 6.83061	-16.6994	-15.9211	C.1
    28	2	 7.46294	-17.3611	-16.1355	C.1
    29	1	-7.96494	-12.0758	 -18.929	N.3
    30	2	-7.01628	-12.5075	-19.2958	C.1
    31	2	-6.92454	-11.8363	-18.6441	C.1
    32	2	-8.54045	-12.9638	-18.6112	C.1
    33	2	-8.44872	-12.2926	-17.9595	C.1
    34	2	-8.47568	-11.7628	-19.8574	C.1
    35	2	-8.38394	-11.0916	-19.2058	C.1
    36	1	 9.15608	-14.9343	 8.43145	N.3
    37	2	 9.15197	-15.3118	 9.46987	C.1
    38	2	 8.74996	-14.4708	 9.34862	C.1
    39	2	 8.69724	-15.7613	 7.86015	C.1
    40	2	 8.29523	-14.9203	  7.7389	C.1
    41	2	  10.222	-14.9912	 8.14619	C.1
    42	2	 9.82002	-14.1502	 8.02494	C.1
    43	1	  12.644	0.334845	  14.828	N.3
    44	2	 13.1208	0.835157	 15.6902	C.1
    45	2	 13.0446	-0.0989935	 15.7619	C.1
    46	2	 13.2379	0.693234	 13.9679	C.1
    47	2	 13.1617	-0.240916	 14.0397	C.1
    48	2	 11.6877	0.877371	 14.7182	C.1
    49	2	 11.6115	-0.0567796	   14.79	C.1
    50	1	-10.7654	 7.20817	 18.4536	N.3
    51	2	-10.1129	 6.82186	 19.2572	C.1
    52	2	-10.0347	 6.37962	 18.4315	C.1
    53	2	 -10.529	 8.28731	  18.433	C.1
    54	2	-10.4508	 7.84506	 17.6073	C.1
    55	2	-11.7716	  7.1787	 18.9091	C.1
    56	2	-11.6934	 6.73646	 18.0833	C.1
    57	1	-12.4148	 13.0989	-6.82995	N.3
    58	2	-11.5229	 13.7159	-6.61851	C.1
    59	2	-11.6578	  12.994	-6.03184	C.1
    60	2	-12.2853	 12.8235	-7.89214	C.1
    61	2	-12.4203	 12.1015	-7.30547	C.1
    62	2	-13.2336	 13.8402	 -6.8592	C.1
    63	2	-13.3686	 13.1182	-6.27253	C.1
    64	1	 4.35145	-16.6365	0.469414	N.3
    65	2	  3.8859	-15.6347	0.446957	C.1
    66	2	 3.66108	-16.1635	 1.19089	C.1
    67	2	 5.42852	-16.4171	0.356994	C.1
    68	2	  5.2037	-16.9459	 1.10093	C.1
    69	2	 4.07716	-17.0646	-0.511606	C.1
    70	2	 3.85234	-17.5933	0.232326	C.1
    71	1	 2.37289	-16.0287	 18.3735	N.3
    72	2	 2.92583	-15.0897	  18.556	C.1
    73	2	 2.62027	 -15.209	 17.6751	C.1
    74	2	 1.58356	-16.0114	 19.1465	C.1
    75	2	 1.27799	-16.1307	 18.2656	C.1
    76	2	 3.06763	-16.8061	 18.7393	C.1
    77	2	 2.76207	-16.9254	 17.8584	C.1
    78	1	-14.1518	 2.42945	-6.40141	N.3
    79	2	 -13.161	 2.02636	 -6.6784	C.1
    80	2	-13.2599	 2.95469	-6.78809	C.1
    81	2	-14.2954	 2.06011	   -5.37	C.1
    82	2	-14.3943	 2.98844	-5.47968	C.1
    83	2	-14.8506	  1.8094	-6.99131	C.1
    84	2	-14.9495	 2.73772	-7.10099	C.1
    85	1	 10.2466	 19.7241	-11.3916	N.3
    86	2	 11.2187	 19.9705	-11.8557	C.1
    87	2	 10.4758	 20.4121	-12.2254	C.1
    88	2	 10.4227	 19.9185	-10.3183	C.1
    89	2	 9.67977	 20.3601	 -10.688	C.1
    90	2	 10.2129	 18.6211	-11.4464	C.1
    91	2	 9.47002	 19.0627	-11.8161	C.1
    92	1	 4.46684	 19.1005	 12.1402	N.3
    93	2	 4.43189	 20.0221	 12.7487	C.1
    94	2	 4.27108	 20.1429	 11.8305	C.1
    95	2	 3.75756	 18.4293	 12.6573	C.1
    96	2	 3.59675	 18.5501	  11.739	C.1
    97	2	 5.45229	 18.6688	  12.392	C.1
    98	2	 5.29148	 18.7896	 11.4737	C.1
    99	1	 13.0123	  15.729	-14.0741	N.3
   100	2	 13.1133	 15.9593	  -15.15	C.1
   101	2	 12.2983	 16.2191	-14.7603	C.1
   102	2	 13.9132	 16.1906	-13.6312	C.1
   103	2	 13.0982	 16.4504	-13.2416	C.1
   104	2	 13.2328	 14.6474	-14.0255	C.1
   105	2	 12.4178	 14.9072	-13.6358	C.1
   106	1	-7.10598	 5.38384	 15.8564	N.3
   107	2	-6.21788	 5.81027	 15.3561	C.1
   108	2	-6.81373	 5.35245	 14.7913	C.1
   109	2	-7.53606	 6.25074	 16.3897	C.1
   110	2	 -8.1319	 5.79293	 15.8249	C.1
   111	2	-6.67023	 4.77723	 16.6707	C.1
   112	2	-7.26608	 4.31942	 16.1059	C.1
   113	1	-19.1452	-1.83966	-8.19746	N.3
   114	2	-19.2172	 -1.7056	-9.29187	C.1
   115	2	-18.3882	-2.02204	-8.98149	C.1
   116	2	-20.0116	-2.48454	-7.96442	C.1
   117	2	-19.1826	-2.80098	-7.65404	C.1
   118	2	-19.4501	-0.854167	-7.80166	C.1
   119	2	-18.6212	-1.17061	-7.49127	C.1
   120	1	 13.5807	-17.8173	-19.8176	N.3
   121	2	  13.283	-17.0539	-20.5589	C.1
   122	2	 12.6544	-17.2182	-19.8796	C.1
   123	2	 14.5666	-17.4602	-19.4693	C.1
   124	2	  13.938	-17.6245	  -18.79	C.1
   125	2	 13.8354	-18.6914	-20.4437	C.1
   126	2	 13.2068	-18.8557	-19.7644	C.1
   127	1	 -15.221	 3.58359	-3.34095	N.3
   128	2	-16.0773	 3.04652	-2.89459	C.1
   129	2	-15.6132	 3.61632	-2.30847	C.1
   130	2	-15.6653	   4.078	-4.22359	C.1
   131	2	-15.2012	  4.6478	-3.63746	C.1
   132	2	-14.6166	 2.77156	-3.78386	C.1
   133	2	-14.1525	 3.34136	-3.19773	C.1
   134	1	 12.9168	 1.57822	 7.32472	N.3
   135	2	 13.1492	 2.10512	 8.26774	C.1
   136	2	  13.461	 2.52603	 7.48723	C.1
   137	2	 11.8222	 1.43708	 7.37732	C.1
   138	2	  12.134	 1.85799	 6.59681	C.1
   139	2	 13.3113	0.561091	 7.49985	C.1
   140	2	 13.6231	0.982004	 6.71934	C.1
   141	1	 7.70198	-11.3578	  4.7534	N.3
   142	2	 7.36917	-10.3043	 4.76539	C.1
   143	2	 6.71644	-10.9327	 5.01575	C.1
   144	2	 8.60788	-11.3438	 5.38586	C.1
   145	2	 7.95515	-11.9722	 5.63622	C.1
   146	2	 8.10799	-11.4829	 3.73341	C.1
   147	2	 7.45526	-12.1113	 3.98377	C.1
   148	1	 18.0959	 15.7507	0.0346268	N.3
   149	2	 17.6395	 15.6639	-0.967893	C.1
   150	2	 17.1125	 16.1031	-0.325278	C.1
   151	2	 19.0737	 16.2217	-0.172885	C.1
   152	2	 18.5466	 16.6609	0.469731	C.1
   153	2	 18.3652	 14.7077	0.280735	C.1
   154	2	 17.8381	 15.1469	0.923351	C.1
   155	1	 -10.431	-11.7715	 18.3055	N.3
   156	2	-11.1247	 -10.984	 18.6511	C.1
   157	2	-11.2287	-11.2426	 17.7534	C.1
   158	2	 -10.575	-12.5782	 19.0467	C.1
   159	2	 -10.679	-12.8368	  18.149	C.1
   160	2	-9.43713	-11.3644	 18.5652	C.1
   161	2	-9.54116	 -11.623	 17.6675	C.1
   162	1	   17.16	-10.6798	 13.8125	N.3
   163	2	 17.1369	-9.63483	 14.1709	C.1
   164	2	 16.7445	-10.2643	 14.7483	C.1
   165	2	 18.2295	-10.8475	 13.5915	C.1
   166	2	 17.8371	-11.4769	 14.1688	C.1
   167	2	 16.7022	-10.6128	 12.8091	C.1
   168	2	 16.3097	-11.2423	 13.3865	C.1
   169	1	 13.1968	-13.5405	-15.5718	N.3
   170	2	 12.7153	-12.8223	-14.8839	C.1
   171	2	 12.6611	-12.6004	-15.7957	C.1
   172	2	 12.7343	-14.5048	-15.2944	C.1
   173	2	 12.6801	 -14.283	-16.2062	C.1
   174	2	 14.2222	-13.6271	-15.1693	C.1
   175	2	  14.168	-13.4053	-16.0811	C.1
   176	1	 8.41162	-10.5584	 17.7974	N.3
   177	2	 7.67863	-10.0341	 18.4366	C.1
   178	2	 8.10058	-10.7732	 18.8357	C.1
   179	2	 9.08973	-9.74832	 17.4738	C.1
   180	2	 9.51168	-10.4875	 17.8728	C.1
   181	2	 7.83359	-10.7843	 16.8832	C.1
   182	2	 8.25554	-11.5234	 17.2822	C.1
   183	1	-6.50268	-3.42909	 10.9493	N.3
   184	2	-7.20998	-3.53636	 11.7914	C.1
   185	2	-6.68042	-4.29274	 11.6152	C.1
   186	2	-5.94198	-2.51214	 11.2056	C.1
   187	2	-5.41242	-3.26853	 11.0294	C.1
   188	2	-7.15042	-3.10418	 10.1152	C.1
   189	2	-6.62086	-3.86056	 9.93896	C.1
   190	1	  2.3091	-12.8082	 4.81994	N.3
   191	2	 1.35024	-12.7623	 4.27278	C.1
   192	2	 2.11696	-12.6167	 3.74882	C.1
   193	2	  2.2647	-13.7897	 5.32544	C.1
   194	2	 3.03142	-13.6441	 4.80147	C.1
   195	2	 2.16226	 -12.091	 5.64754	C.1
   196	2	 2.92899	-11.9454	 5.12358	C.1
   197	1	-13.3486	-6.98561	-6.78469	N.3
   198	2	-13.0273	-7.89901	  -7.317	C.1
   199	2	-12.4664	-7.62836	 -6.6129	C.1
   200	2	-14.3896	-7.21539	 -6.4945	C.1
   201	2	-13.8288	-6.94473	-5.79041	C.1
   202	2	-13.4701	-6.24842	 -7.5987	C.1
   203	2	-12.9092	-5.97776	-6.89461	C.1
   204	1	-4.24369	 14.5317	-10.8224	N.3
   205	2	-3.42202	 15.2452	-11.0138	C.1
   206	2	-3.90235	 14.9749	-11.7753	C.1
   207	2	-4.84249	 15.0389	-10.0445	C.1
   208	2	-5.32282	 14.7685	-10.8059	C.1
   209	2	-3.74606	 13.7166	-10.2667	C.1
   210	2	-4.22638	 13.4463	-11.0281	C.1
   211	1	-4.72477	 8.41193	 4.31327	N.3
   212	2	-3.81514	 8.63053	 3.72532	C.1
   213	2	-4.38405	 9.36478	 3.86956	C.1
   214	2	-4.32614	 7.93921	 5.22896	C.1
   215	2	-4.89505	 8.67347	  5.3732	C.1
   216	2	-5.17968	 7.56466	 3.76916	C.1
   217	2	-5.74858	 8.29892	  3.9134	C.1
   218	1	-7.63279	 14.2412	 16.1248	N.3
   219	2	-8.57306	 14.1262	  15.556	C.1
   220	2	-7.99158	 13.3885	 15.5206	C.1
   221	2	-7.98162	 14.5166	 17.1365	C.1
   222	2	-7.40013	 13.7789	 17.1011	C.1
   223	2	-7.21591	 15.1874	 15.7352	C.1
   224	2	-6.63443	 14.4496	 15.6998	C.1
   225	1	-5.56137	-13.2737	 14.9414	N.3
   226	2	-6.18757	 -14.032	  15.445	C.1
   227	2	-5.89477	-14.2641	 14.5825	C.1
   228	2	-4.75756	-13.0822	 15.6749	C.1
   229	2	-4.46476	-13.3143	 14.8124	C.1
   230	2	-6.17818	-12.3587	 14.9981	C.1
   231	2	-5.88539	-12.5907	 14.1355	C.1
   232	1	 5.11504	-6.17367	0.945747	N.3
   233	2	 4.05054	-6.37791	0.731182	C.1
   234	2	 4.25028	-5.48586	0.950164	C.1
   235	2	 5.63261	-6.56532	0.0515496	C.1
   236	2	 5.83235	-5.67327	0.270531	C.1
   237	2	 5.36235	-6.91586	 1.72604	C.1
   238	2	 5.56209	-6.02381	 1.94502	C.1
   239	1	 5.49479	-5.92394	-8.08362	N.3
   240	2	 6.30531	-6.22706	-8.77071	C.1
   241	2	 5.43404	-6.39089	 -9.0832	C.1
   242	2	 5.72654	-4.86465	-7.87135	C.1
   243	2	 4.85527	-5.02849	-8.18385	C.1
   244	2	 5.75942	-6.43435	-7.14006	C.1
   245	2	 4.88816	-6.59819	-7.45256	C.1
   246	1	0.652564	0.221397	 13.6452	N.3
   247	2	  1.7295	0.0218213	 13.4993	C.1
   248	2	 1.14982	-0.605076	 13.1061	C.1
   249	2	 0.53688	 1.25935	 13.2844	C.1
   250	2	-0.0427993	0.632448	 12.8913	C.1
   251	2	0.560836	0.323369	 14.7415	C.1
   252	2	-0.0188437	-0.303528	 14.3484	C.1
   253	1	 4.27249	-16.7444	 -2.9201	N.3
   254	2	 4.12166	-16.1989	-1.97115	C.1
   255	2	 4.10916	-17.1361	-1.89988	C.1
   256	2	 5.21245	-16.3153	-3.31151	C.1
   257	2	 5.19995	-17.2525	-3.24024	C.1
   258	2	 3.50211	-16.3133	-3.58454	C.1
   259	2	 3.48961	-17.2505	-3.51327	C.1
   260	1	 7.18445	 15.3331	 4.67091	N.3
   261	2	 7.03994	 14.5444	 5.43117	C.1
   262	2	 7.38453	 14.2482	 4.60829	C.1
   263	2	 7.80361	 16.0814	 5.19776	C.1
   264	2	  8.1482	 15.7852	 4.37488	C.1
   265	2	 6.19291	 15.8178	 4.61813	C.1
   266	2	  6.5375	 15.5216	 3.79525	C.1
   267	1	-10.4463	-11.4199	-12.4144	N.3
   268	2	 -10.076	-12.4536	 -12.537	C.1
   269	2	 -9.4085	-11.7963	-12.4597	C.1
   270	2	-11.1315	-11.4978	-11.5511	C.1
   271	2	 -10.464	-10.8404	-11.4738	C.1
   272	2	-11.1328	-11.2942	-13.2711	C.1
   273	2	-10.4653	-10.6369	-13.1938	C.1
   274	1	 9.01358	 -6.9533	-9.68912	N.3
   275	2	 9.17376	-5.86003	-9.69217	C.1
   276	2	 8.33234	-6.13999	-9.38034	C.1
   277	2	 9.87784	-7.33362	-9.11531	C.1
   278	2	 9.03642	-7.61358	-8.80348	C.1
   279	2	 9.25127	 -7.2463	-10.7276	C.1
   280	2	 8.40985	-7.52626	-10.4158	C.1
   281	1	 19.3618	 13.8746	-7.05121	N.3
   282	2	 20.4104	 13.9827	-6.72021	C.1
   283	2	 20.0527	 13.1172	-6.63919	C.1
   284	2	 19.3777	 14.2824	-8.07802	C.1
   285	2	   19.02	 13.4169	  -7.997	C.1
   286	2	 18.8337	 14.6571	-6.47693	C.1
   287	2	  18.476	 13.7916	-6.39591	C.1
   288	1	-0.719038	 1.30811	 11.0946	N.3
   289	2	-0.00774204	0.541142	 10.7386	C.1
   290	2	-0.361974	 1.09895	   10.07	C.1
   291	2	-0.153683	 1.82752	 11.8892	C.1
   292	2	-0.507915	 2.38533	 11.2206	C.1
   293	2	-1.46434	 0.71897	 11.6587	C.1
   294	2	-1.81857	 1.27678	 10.9902	C.1
   295	1	-14.6806	 17.9122	-12.0386	N.3
   296	2	-13.8001	 18.4695	 -12.406	C.1
   297	2	-13.6083	 17.6513	 -11.985	C.1
   298	2	-15.3256	 17.8408	-12.9329	C.1
   299	2	-15.1338	 17.0225	-12.5118	C.1
   300	2	-15.2039	 18.6537	-11.4084	C.1
   301	2	-15.0121	 17.8355	-10.9873	C.1
   302	1	 -18.691	-3.27578	-19.1798	N.3
   303	2	-17.6276	-3.01367	-19.0334	C.1
   304	2	-17.7919	-3.91477	-19.2447	C.1
   305	2	 -19.029	-2.54619	-19.9376	C.1
   306	2	-19.1933	-3.44729	-20.1489	C.1
   307	2	-19.1699	-2.91584	-18.2514	C.1
   308	2	-19.3342	-3.81693	-18.4626	C.1
   309	1	-3.97871	 19.3929	-10.0633	N.3
   310	2	-3.92784	 18.6848	-9.21661	C.1
   311	2	-4.04593	   18.29	-10.0615	C.1
   312	2	-3.05646	 19.9905	 -9.9486	C.1
   313	2	-3.17456	 19.5957	-10.7934	C.1
   314	2	-4.77468	 20.0956	-9.75752	C.1
   315	2	-4.89278	 19.7008	-10.6024	C.1
   316	1	-3.56727	-16.6467	 14.6498	N.3
   317	2	-3.94327	-17.2741	  15.478	C.1
   318	2	-4.41475	-17.3554	 14.6689	C.1
   319	2	-2.49591	 -16.912	 14.5982	C.1
   320	2	-2.96739	-16.9933	 13.7891	C.1
   321	2	-3.55541	 -15.632	 15.0869	C.1
   322	2	-4.02689	-15.7133	 14.2778	C.1
   323	1	 19.7831	 8.36266	-13.7721	N.3
   324	2	 19.4869	 7.52353	-14.4271	C.1
   325	2	 19.8362	 8.27414	-14.8722	C.1
   326	2	 20.4662	 7.88699	-13.0456	C.1
   327	2	 20.8156	  8.6376	-13.4907	C.1
   328	2	 18.8721	 8.55155	 -13.176	C.1
   329	2	 19.2215	 9.30216	-13.6211	C.1
   330	1	 12.5438	-9.72502	 9.72804	N.3
   331	2	 12.3815	 -9.7101	 10.8209	C.1
   332	2	 11.6785	-9.35548	 10.3074	C.1
   333	2	  12.788	 -10.783	 9.52338	C.1
   334	2	 12.0851	-10.4284	 9.00988	C.1
   335	2	 13.5162	 -9.2139	 9.61009	C.1
   336	2	 12.8133	-8.85928	 9.09659	C.1
   337	1	 6.28147	 13.0619	-0.409011	N.3
   338	2	 5.69763	 12.2026	-0.032896	C.1
   339	2	 6.58819	 12.2421	 0.26531	C.1
   340	2	 5.65565	  13.931	-0.136909	C.1
   341	2	 6.54621	 13.9705	0.161297	C.1
   342	2	 6.15528	  12.993	-1.50454	C.1
   343	2	 7.04584	 13.0326	-1.20633	C.1
   344	1	 8.72851	 14.4347	-9.58935	N.3
   345	2	 7.67672	 14.1267	-9.44881	C.1
   346	2	  8.2299	  14.015	-8.69706	C.1
   347	2	 8.64066	 15.4725	-9.95827	C.1
   348	2	 9.19385	 15.3608	-9.20652	C.1
   349	2	 9.03839	 13.8724	-10.4886	C.1
   350	2	 9.59157	 13.7607	-9.73684	C.1
   351	1	-12.2018	-6.63277	-4.42944	N.3
   352	2	-12.1283	-7.61836	-4.92351	C.1
   353	2	-12.4786	-7.63343	-4.05135	C.1
   354	2	-12.7746	-6.02829	-5.15564	C.1
   355	2	 -13.125	-6.04336	-4.28349	C.1
   356	2	-11.1771	-6.22905	-4.51741	C.1
   357	2	-11.5274	-6.24412	-3.64526	C.1
   358	1	-13.2998	 14.7465	 17.1143	N.3
   359	2	-13.9547	 14.5101	 17.9722	C.1
   360	2	-14.2172	 15.2548	 17.4621	C.1
   361	2	-13.2529	  13.791	 16.5614	C.1
   362	2	-13.5154	 14.5357	 16.0513	C.1
   363	2	 -12.298	 14.8214	 17.5744	C.1
   364	2	-12.5604	 15.5661	 17.0643	C.1
   365	1	 4.13228	-5.42143	-3.84772	N.3
   366	2	 3.57994	-6.16872	-4.44552	C.1
   367	2	 3.11879	-5.36563	-4.28432	C.1
   368	2	 5.08562	 -5.3141	-4.39587	C.1
   369	2	 4.62448	  -4.511	-4.23467	C.1
   370	2	   4.423	 -5.9861	-2.94357	C.1
   371	2	 3.96185	-5.18301	-2.78237	C.1
   372	1	-9.16378	 -3.2934	-7.34069	N.3
   373	2	 -8.1016	-3.17347	-7.62051	C.1
   374	2	-8.38496	 -4.0613	-7.49777	C.1
   375	2	-9.69766	-2.73455	-8.13031	C.1
   376	2	-9.98102	-3.62238	-8.00757	C.1
   377	2	-9.26702	-2.64043	-6.45535	C.1
   378	2	-9.55039	-3.52826	 -6.3326	C.1
   379	1	 8.89281	-0.810069	-16.1844	N.3
   380	2	 9.26434	-1.64737	-16.8023	C.1
   381	2	 9.27961	-1.79762	-15.8746	C.1
   382	2	 7.89438	-0.604985	 -16.611	C.1
   383	2	 7.90966	-0.755237	-15.6832	C.1
   384	2	 9.49681	0.0475235	-16.5317	C.1
   385	2	 9.51208	-0.102728	-15.6039	C.1
   386	1	-3.83443	 -9.1999	 4.72885	N.3
   387	2	-4.19493	-8.18987	 4.46281	C.1
   388	2	-3.94961	-8.30256	 5.36321	C.1
   389	2	-3.02795	-9.38149	 3.99572	C.1
   390	2	-2.78264	-9.49418	 4.89612	C.1
   391	2	-4.64839	-9.85931	 4.37741	C.1
   392	2	-4.40308	  -9.972	 5.27781	C.1
   393	1	 1.68932	-19.4428	 14.1445	N.3
   394	2	 2.65144	-19.8792	 14.4681	C.1
   395	2	 2.60821	-19.6344	 13.5616	C.1
   396	2	 1.53221	-18.6175	 14.8622	C.1
   397	2	 1.48899	-18.3727	 13.9557	C.1
   398	2	0.949137	-20.1988	  14.463	C.1
   399	2	0.905912	 -19.954	 13.5565	C.1
   400	1	0.254414	-2.38472	 18.1925	N.3
   401	2	0.253219	-1.48288	 18.8309	C.1
   402	2	0.556101	-1.34954	 17.9511	C.1
   403	2	-0.781572	-2.75848	 18.2814	C.1
   404	2	-0.47869	-2.62514	 17.4015	C.1
   405	2	0.837273	-3.11282	 18.7849	C.1
   406	2	 1.14015	-2.97949	 17.9051	C.1
   407	1	 -12.909	 6.29866	 5.62571	N.3
   408	2	-12.6751	 6.61814	 4.59414	C.1
   409	2	-12.8697	 7.31508	 5.19413	C.1
   410	2	 -12.041	 5.67194	 5.89895	C.1
   411	2	-12.2356	 6.36888	 6.49894	C.1
   412	2	-13.7188	 5.56049	 5.48405	C.1
   413	2	-13.9135	 6.25743	 6.08404	C.1
   414	1	-8.13569	-13.2497	-14.0973	N.3
   415	2	 -8.6517	-12.4977	-14.7211	C.1
   416	2	-8.47302	  -12.23	-13.8379	C.1
   417	2	-7.24598	-13.5093	-14.6989	C.1
   418	2	 -7.0673	-13.2416	-13.8157	C.1
   419	2	-8.77743	-14.1436	-14.1968	C.1
   420	2	-8.59875	-13.8759	-13.3136	C.1
   421	1	 19.8463	-13.7315	 2.66415	N.3
   422	2	 19.8261	-13.4588	  3.7347	C.1
   423	2	 20.0227	-14.3603	 3.55543	C.1
   424	2	  20.553	-13.0012	 2.23065	C.1
   425	2	 20.7496	-13.9027	 2.05138	C.1
   426	2	 18.8648	-13.3823	 2.29599	C.1
   427	2	 19.0614	-14.2839	 2.11673	C.1
   428	1	 15.9948	 12.2903	 18.4388	N.3
   429	2	 15.1992	 12.5237	 17.7084	C.1
   430	2	 15.1986	 11.6412	 18.0319	C.1
   431	2	 15.8688	 13.0732	 19.2083	C.1
   432	2	 15.8681	 12.1906	 19.5319	C.1
   433	2	 16.9173	  12.598	 17.9143	C.1
   434	2	 16.9167	 11.7154	 18.2378	C.1
   435	1	-2.51791	 10.5268	-0.191227	N.3
   436	2	-1.50245	 10.9344	-0.344905	C.1
   437	2	-2.20255	 11.4742	-0.664345	C.1
   438	2	-2.54409	 10.3161	0.893104	C.1
   439	2	-3.24419	 10.8559	0.573664	C.1
   440	2	-2.45705	 9.52015	-0.64272	C.1
   441	2	-3.15715	   10.06	-0.96216	C.1
   442	1	-19.8782	 12.4383	-1.91869	N.3
   443	2	-20.1133	 12.4482	-0.839088	C.1
   444	2	-20.8592	 12.4207	-1.41048	C.1
   445	2	-19.1791	 11.5884	-2.01723	C.1
   446	2	 -19.925	 11.5609	-2.58862	C.1
   447	2	-19.2234	 13.3196	-2.04266	C.1
   448	2	-19.9693	 13.2922	-2.61405	C.1
   449	1	-10.1349	 12.0442	-15.9052	N.3
   450	2	-9.45477	 11.2468	-15.5553	C.1
   451	2	-9.10494	  11.805	-16.2259	C.1
   452	2	-10.4246	 12.5573	-14.9704	C.1
   453	2	-10.0748	 13.1154	 -15.641	C.1
   454	2	-11.0501	 11.4914	-16.1839	C.1
   455	2	-10.7002	 12.0496	-16.8545	C.1
   456	1	-0.457962	 6.94445	-4.06526	N.3
   457	2	-0.995734	 6.37832	-3.28347	C.1
   458	2	-0.817946	 7.27754	-3.07513	C.1
   459	2	-1.07874	 6.78437	-4.96519	C.1
   460	2	-0.900949	 7.68359	-4.75685	C.1
   461	2	0.433901	 6.32183	-4.25964	C.1
   462	2	 0.61169	 7.22105	 -4.0513	C.1
   463	1	-9.05376	 -3.6205	-5.03521	N.3
   464	2	-9.47714	-4.63371	-4.91254	C.1
   465	2	 -8.5394	-4.58437	-4.87002	C.1
   466	2	-9.59064	-3.02834	-4.27235	C.1
   467	2	 -8.6529	-2.97899	-4.22983	C.1
   468	2	-9.50012	-3.27346	-5.98452	C.1
   469	2	-8.56238	-3.22412	-5.94201	C.1
   470	1	-4.38009	 2.72107	 5.26203	N.3
   471	2	-4.82998	 3.46052	 4.57522	C.1
   472	2	-3.90947	 3.56867	 4.73194	C.1
   473	2	-4.67033	 1.75275	 4.81598	C.1
   474	2	-3.74981	  1.8609	  4.9727	C.1
   475	2	-5.02072	 2.78772	  6.1598	C.1
   476	2	-4.10021	 2.89587	 6.31652	C.1
   477	1	-8.01109	-11.6751	-6.40336	N.3
   478	2	-7.12002	-12.2187	-6.04086	C.1
   479	2	-7.71965	-11.9426	-5.37166	C.1
   480	2	-8.43422	  -12.36	-7.16017	C.1
   481	2	-9.03386	-12.0839	-6.49097	C.1
   482	2	-7.57959	-10.8608	-7.01284	C.1
   483	2	-8.17922	-10.5847	-6.34364	C.1
   484	1	 4.70305	-7.27574	 4.28185	N.3
   485	2	 4.76758	-8.37335	 4.17239	C.1
   486	2	 4.49474	-7.90999	 3.40138	C.1
   487	2	 5.70179	 -7.0011	  4.6665	C.1
   488	2	 5.42896	-6.53774	 3.89549	C.1
   489	2	 4.04904	 -7.1478	 5.16319	C.1
   490	2	  3.7762	-6.68444	 4.39218	C.1
   491	1	-18.9075	-3.90813	-7.46772	N.3
   492	2	-18.6513	-2.91491	-7.05689	C.1
   493	2	-19.5571	-3.03486	-7.27747	C.1
   494	2	-18.5126	-4.60558	-6.70713	C.1
   495	2	-19.4184	-4.72554	 -6.9277	C.1
   496	2	-18.1997	-4.02398	-8.30828	C.1
   497	2	-19.1056	-4.14394	-8.52885	C.1
   498	1	 16.3181	-4.38621	-8.86426	N.3
   499	2	   17.29	-4.89472	-8.99766	C.1
   500	2	 17.2794	-3.98457	-9.23243	C.1
   501	2	  16.062	-4.60306	-7.81154	C.1
   502	2	 16.0514	-3.69291	-8.04631	C.1
   503	2	 15.6183	-5.02606	-9.43143	C.1
   504	2	 15.6077	-4.11591	 -9.6662	C.1
   505	1	-10.2474	-3.24561	 16.3624	N.3
   506	2	-11.1555	-2.62665	 16.4776	C.1
   507	2	-10.8084	-2.66895	  15.605	C.1
   508	2	-10.5468	-4.21648	 16.7967	C.1
   509	2	-10.1997	-4.25879	 15.9242	C.1
   510	2	-9.56063	-2.83024	 17.1218	C.1
   511	2	-9.21358	-2.87255	 16.2492	C.1
   512	1	-14.8587	-11.2886	-12.6372	N.3
   513	2	-15.7935	-10.8313	-12.2657	C.1
   514	2	 -15.871	-11.7232	-12.5521	C.1
   515	2	-14.1486	-11.1215	-11.8074	C.1
   516	2	-14.2261	-12.0134	-12.0939	C.1
   517	2	-14.5178	 -10.575	-13.4089	C.1
   518	2	-14.5954	-11.4669	-13.6954	C.1
   519	1	-15.8987	-12.5368	 5.27431	N.3
   520	2	-15.0818	-13.2362	 5.02039	C.1
   521	2	-15.3299	-13.2233	 5.92699	C.1
   522	2	-16.7023	 -12.821	 4.57119	C.1
   523	2	-16.9503	-12.8081	 5.47779	C.1
   524	2	  -15.54	-11.5725	 4.87147	C.1
   525	2	 -15.788	-11.5596	 5.77806	C.1
   526	1	-17.2864	 -8.6788	-1.43045	N.3
   527	2	-17.7491	-8.96225	  -2.393	C.1
   528	2	-17.8753	-9.57627	-1.69253	C.1
   529	2	-17.6879	-7.66608	-1.24576	C.1
   530	2	-17.8141	 -8.2801	-0.545297	C.1
   531	2	-16.2331	-8.48703	 -1.7033	C.1
   532	2	-16.3592	-9.10105	-1.00283	C.1
   533	1	 10.0691	 -1.7363	-3.75828	N.3
   534	2	 9.72655	-2.76771	-3.95768	C.1
   535	2	 9.58909	-2.46361	-3.07892	C.1
   536	2	 9.56428	-1.14611	-4.54424	C.1
   537	2	 9.42682	-0.84201	-3.66547	C.1
   538	2	 11.1226	-1.75122	-4.09108	C.1
   539	2	 10.9851	-1.44712	-3.21231	C.1
   540	1	 14.2707	 7.20988	 2.47353	N.3
   541	2	 14.6661	 6.68659	 3.36274	C.1
   542	2	 15.3173	 7.01795	  2.7713	C.1
   543	2	 13.5982	 7.97191	 2.90714	C.1
   544	2	 14.2494	 8.30326	  2.3157	C.1
   545	2	 13.5709	  6.4741	 2.03787	C.1
   546	2	  14.222	 6.80545	 1.44643	C.1
   547	1	-17.2316	 17.6324	 5.91209	N.3
   548	2	-16.7064	 18.5994	 6.01275	C.1
   549	2	 -16.536	  18.133	 5.21458	C.1
   550	2	-18.2897	 17.9007	 6.08295	C.1
   551	2	-18.1193	 17.4344	 5.28479	C.1
   552	2	-16.9542	 17.0967	 6.83781	C.1
   553	2	-16.7838	 16.6304	 6.03965	C.1
   554	1	-7.09767	-2.41924	 2.60894	N.3
   555	2	 -7.8781	-2.89089	 1.98495	C.1
   556	2	-7.86823	-3.16144	 2.88512	C.1
   557	2	-7.26152	-1.33896	 2.44462	C.1
   558	2	-7.25165	-1.60951	 3.34479	C.1
   559	2	-6.16818	-2.62206	   2.047	C.1
   560	2	-6.15831	-2.89261	 2.94717	C.1
   561	1	 3.92246	-14.6902	-9.73262	N.3
   562	2	 4.98315	-14.7227	-9.42474	C.1
   563	2	 4.36437	-14.9381	-8.75069	C.1
   564	2	  3.8971	-15.3466	-10.6211	C.1
   565	2	 3.27832	 -15.562	-9.94703	C.1
   566	2	 3.81531	-13.6783	-10.1631	C.1
   567	2	 3.19653	-13.8936	-9.48908	C.1
   568	1	-14.9965	-2.82606	0.310714	N.3
   569	2	-14.2811	-3.63242	  0.5536	C.1
   570	2	-15.1587	-3.91721	0.373806	C.1
   571	2	-14.4987	-2.28719	-0.515506	C.1
   572	2	-15.3762	-2.57197	 -0.6953	C.1
   573	2	-14.8932	-2.13141	 1.16374	C.1
   574	2	-15.7708	-2.41619	0.983945	C.1
   575	1	-19.4388	 10.6429	 10.3056	N.3
   576	2	-19.9861	 9.82913	 9.79659	C.1
   577	2	-20.4289	 10.6581	 9.81541	C.1
   578	2	-18.4584	 10.6452	  9.7961	C.1
   579	2	-18.9012	 11.4742	 9.81493	C.1
   580	2	-19.2077	 10.2109	  11.296	C.1
   581	2	-19.6505	 11.0398	 11.3148	C.1
   582	1	  5.7413	 18.9762	-14.1481	N.3
   583	2	 6.02365	 18.7479	-13.1045	C.1
   584	2	 6.55509	 19.3962	-13.5298	C.1
   585	2	 4.66771	 19.2257	-14.0705	C.1
   586	2	 5.19915	  19.874	-14.4958	C.1
   587	2	 5.73537	 17.9825	-14.6313	C.1
   588	2	 6.26681	 18.6308	-15.0566	C.1
   589	1	  5.7568	-15.7179	 11.9123	N.3
   590	2	 5.09989	-14.9006	  11.564	C.1
   591	2	  5.9379	 -14.948	 11.1408	C.1
   592	2	 5.12288	-16.6161	 11.8016	C.1
   593	2	 5.96089	-16.6635	 11.3784	C.1
   594	2	 5.79063	 -15.566	 13.0063	C.1
   595	2	 6.62863	-15.6134	 12.5831	C.1
   596	1	-14.2863	-8.40221	-10.7706	N.3
   597	2	-15.2637	-8.21037	-10.2922	C.1
   598	2	-14.8459	-7.45533	-10.6651	C.1
   599	2	-14.5096	  -9.216	-11.4839	C.1
   600	2	-14.0918	-8.46096	-11.8567	C.1
   601	2	-13.7123	-8.91283	-9.97647	C.1
   602	2	-13.2945	-8.15779	-10.3493	C.1
   603	1	0.774664	-8.97404	 9.91102	N.3
   604	2	0.519109	-9.89569	 9.35771	C.1
   605	2	0.531377	-9.11001	 8.84181	C.1
   606	2	 1.73179	 -9.2302	    10.4	C.1
   607	2	 1.74406	-8.44451	 9.88414	C.1
   608	2	0.0546868	-8.97476	 10.7492	C.1
   609	2	0.0669551	-8.18908	 10.2333	C.1
   610	1	 -3.1901	-5.45899	-14.4497	N.3
   611	2	-4.03239	-6.17326	-14.4856	C.1
   612	2	-3.18096	 -6.5629	-14.4028	C.1
   613	2	-3.47486	-4.77354	-13.6312	C.1
   614	2	-2.62344	-5.16319	-13.5484	C.1
   615	2	 -3.3402	-4.84571	-15.3565	C.1
   616	2	-2.48878	-5.23536	-15.2737	C.1
   617	1	-13.9131	-6.91851	 1.82152	N.3
   618	2	-13.7112	-6.56369	 2.84829	C.1
   619	2	-13.1071	-7.20505	 2.52086	C.1
   620	2	-13.9675	-5.98247	 1.23694	C.1
   621	2	-13.3633	-6.62384	0.909503	C.1
   622	2	-14.9668	-7.24731	 1.87049	C.1
   623	2	-14.3626	-7.88867	 1.54306	C.1
   624	1	 17.6833	 14.4231	 17.2599	N.3
   625	2	 18.2187	  14.456	 16.2939	C.1
   626	2	 18.3341	 15.2116	  16.841	C.1
   627	2	 18.0181	 13.4673	 17.7018	C.1
   628	2	 18.1335	 14.2229	 18.2489	C.1
   629	2	   16.64	 14.2124	 16.9633	C.1
   630	2	 16.7553	  14.968	 17.5104	C.1
   631	1	-0.996205	-2.92698	-19.0238	N.3
   632	2	-0.128347	-2.39646	-18.5922	C.1
   633	2	-0.0677868	 -2.5799	-19.5122	C.1
   634	2	-1.85224	-2.29506	-18.7259	C.1
   635	2	-1.79168	 -2.4785	-19.6459	C.1
   636	2	-1.09887	-3.81426	-18.3734	C.1
   637	2	-1.03831	 -3.9977	-19.2933	C.1
   638	1	-19.8111	 11.0431	 18.8586	N.3
   639	2	-19.2031	 10.2212	 19.2778	C.1
   640	2	-20.0832	 10.2737	 19.6036	C.1
   641	2	 -19.722	 10.8922	 17.7677	C.1
   642	2	-20.6022	 10.9447	 18.0935	C.1
   643	2	-19.1881	  11.937	 19.0417	C.1
   644	2	-20.0683	 11.9895	 19.3675	C.1
   645	1	-8.09341	-0.910708	 11.5324	N.3
   646	2	-7.38746	-0.286948	 12.1099	C.1
   647	2	-8.25438	0.0659949	 12.0234	C.1
   648	2	-8.03367	-1.89224	 12.0363	C.1
   649	2	-8.90059	-1.53929	 11.9498	C.1
   650	2	-7.55872	-1.08235	 10.5809	C.1
   651	2	-8.42563	-0.729411	 10.4944	C.1
   652	1	 12.5836	-9.66235	 18.4177	N.3
   653	2	 12.5072	-10.6048	 17.8459	C.1
   654	2	 11.7409	-10.0607	 17.8242	C.1
   655	2	 13.5019	-9.19713	 18.0163	C.1
   656	2	 12.7357	-8.65304	 17.9946	C.1
   657	2	  12.891	-10.0013	 19.4234	C.1
   658	2	 12.1248	-9.45721	 19.4017	C.1
   659	1	  17.097	-8.10864	 14.7307	N.3
   660	2	 17.3902	-8.22855	 15.7892	C.1
   661	2	 16.8528	-8.91755	 15.4427	C.1
   662	2	 18.0637	-7.96237	 14.2159	C.1
   663	2	 17.5264	-8.65138	 13.8693	C.1
   664	2	 16.6432	-7.10149	 14.7068	C.1
   665	2	 16.1059	-7.79049	 14.3602	C.1
   666	1	 15.5754	-14.1482	-3.32139	N.3
   667	2	 16.3147	-14.2618	-2.50808	C.1
   668	2	 16.6404	-13.8553	-3.29055	C.1
   669	2	 14.7388	-13.6193	-2.83023	C.1
   670	2	 15.0645	-13.2128	 -3.6127	C.1
   671	2	 15.1842	-15.1732	-3.45215	C.1
   672	2	 15.5099	-14.7667	-4.23462	C.1
   673	1	 19.6539	-11.9128	-2.85518	N.3
   674	2	 19.6029	-10.9723	-3.43281	C.1
   675	2	 18.9848	-11.6326	-3.68861	C.1
   676	2	   19.57	-11.5709	-1.80785	C.1
   677	2	 18.9518	-12.2312	-2.06365	C.1
   678	2	 20.7161	-12.2048	-2.94118	C.1
   679	2	 20.0979	-12.8652	-3.19698	C.1
   680	1	-5.14067	-8.58916	  12.877	N.3
   681	2	-5.76472	-8.80726	 11.9916	C.1
   682	2	-5.93451	-9.34597	  12.743	C.1
   683	2	-5.29169	 -7.5056	 13.0318	C.1
   684	2	-5.46148	-8.04431	 13.7832	C.1
   685	2	-4.11091	-8.64656	 12.4806	C.1
   686	2	 -4.2807	-9.18526	  13.232	C.1
   687	1	   11.33	-3.40181	 18.7462	N.3
   688	2	  11.815	-3.94416	 17.9146	C.1
   689	2	 11.3291	-4.48191	 18.5132	C.1
   690	2	 10.7409	-2.62249	   18.23	C.1
   691	2	  10.255	-3.16024	 18.8286	C.1
   692	2	 12.1631	-2.83217	 19.1961	C.1
   693	2	 11.6772	-3.36991	 19.7947	C.1
   694	1	 18.7754	-13.8322	 8.63904	N.3
   695	2	 19.6385	-14.4704	 8.37682	C.1
   696	2	 19.3979	-14.4768	  9.2855	C.1
   697	2	 17.9885	-14.1727	 7.94211	C.1
   698	2	  17.748	-14.1792	 8.85078	C.1
   699	2	 19.0601	 -12.844	 8.23519	C.1
   700	2	 18.8195	-12.8504	 9.14386	C.1
   701	1	-9.95811	 13.2965	 5.77491	N.3
   702	2	-9.41815	 12.8596	 6.63428	C.1
   703	2	-8.98798	 13.5846	 6.21842	C.1
   704	2	-10.9574	 13.5186	 6.19089	C.1
   705	2	-10.5272	 14.2436	 5.77503	C.1
   706	2	-10.1441	 12.4237	 5.12335	C.1
   707	2	-9.71393	 13.1487	 4.70749	C.1
   708	1	 9.99967	 17.3571	-4.36174	N.3
   709	2	 9.21625	 16.8309	 -4.9364	C.1
   710	2	 10.0761	 16.4558	-4.99632	C.1
   711	2	 9.57697	 17.4031	 -3.3419	C.1
   712	2	 10.4368	  17.028	-3.40181	C.1
   713	2	 9.91606	    18.4	-4.71703	C.1
   714	2	 10.7759	 18.0249	-4.77695	C.1
   715	1	-0.508512	 14.1493	-12.5525	N.3
   716	2	0.570305	 14.1814	-12.7892	C.1
   717	2	0.0901045	 13.4887	-13.2053	C.1
   718	2	-0.851132	  15.171	-12.7964	C.1
   719	2	-1.33133	 14.4783	-13.2125	C.1
   720	2	-0.524409	 14.1345	-11.4478	C.1
   721	2	-1.00461	 13.4418	-11.8639	C.1
   722	1	-2.76604	-14.0791	 7.29083	N.3
   723	2	-2.38465	 -15.014	 7.73961	C.1
   724	2	-3.32091	-14.9322	 7.72104	C.1
   725	2	-2.27232	-14.0535	 6.30267	C.1
   726	2	-3.20858	-13.9717	  6.2841	C.1
   727	2	-2.23675	-13.2923	 7.85806	C.1
   728	2	-3.17301	-13.2106	 7.83949	C.1
   729	1	-15.2928	-1.86471	 16.4424	N.3
   730	2	-14.9293	-1.45647	 15.4821	C.1
   731	2	-14.5692	-1.05197	 16.2504	C.1
   732	2	-15.0977	-2.94803	 16.3463	C.1
   733	2	-14.7376	-2.54352	 17.1146	C.1
   734	2	-16.3914	-1.79638	 16.3463	C.1
   735	2	-16.0313	-1.39187	 17.1146	C.1
   736	1	 3.35133	 3.11323	 13.3186	N.3
   737	2	 2.29561	 3.43349	  13.257	C.1
   738	2	 2.91061	 3.99842	 12.8255	C.1
   739	2	 3.32262	 2.07482	 12.9421	C.1
   740	2	 3.93762	 2.63975	 12.5105	C.1
   741	2	 3.51326	 2.98399	 14.4039	C.1
   742	2	 4.12826	 3.54891	 13.9723	C.1
   743	1	 18.2569	 2.12846	-8.04637	N.3
   744	2	 17.9743	 2.19451	-6.98022	C.1
   745	2	  18.875	 1.98045	-7.14259	C.1
   746	2	 17.9229	 3.09847	-8.45676	C.1
   747	2	 18.8237	 2.88441	-8.61913	C.1
   748	2	 17.5222	 1.41347	-8.45859	C.1
   749	2	  18.423	 1.19941	-8.62095	C.1
   750	1	-10.8811	 5.57723	-15.0403	N.3
   751	2	-10.7557	 6.67208	-14.9598	C.1
   752	2	-9.98247	 6.19818	 -15.207	C.1
   753	2	 -11.738	  5.4711	-15.7297	C.1
   754	2	-10.9647	 4.99719	 -15.977	C.1
   755	2	-11.3094	 5.29935	-14.0604	C.1
   756	2	-10.5362	 4.82545	-14.3076	C.1
   757	1	-10.0812	-7.07929	-17.1662	N.3
   758	2	-9.24016	-6.99773	-16.4542	C.1
   759	2	-9.03676	-6.76408	-17.3417	C.1
   760	2	-10.8742	-6.47427	-16.6909	C.1
   761	2	-10.6708	-6.24062	-17.5784	C.1
   762	2	-10.4342	-8.11635	-17.0224	C.1
   763	2	-10.2308	 -7.8827	-17.9099	C.1
   764	1	-14.5695	  14.406	-18.6365	N.3
   765	2	-15.6119	 14.7472	-18.5025	C.1
   766	2	-14.9574	 15.4157	-18.4111	C.1
   767	2	-14.5929	 13.9026	-19.6198	C.1
   768	2	-13.9385	 14.5711	-19.5284	C.1
   769	2	-14.4853	 13.5654	-17.9243	C.1
   770	2	-13.8309	 14.2339	-17.8329	C.1
   771	1	 18.7029	 17.4339	 6.73413	N.3
   772	2	 19.1201	 16.5858	 6.16173	C.1
   773	2	 19.0165	 16.4336	 7.08352	C.1
   774	2	 17.7716	 17.6724	 6.18953	C.1
   775	2	  17.668	 17.5202	 7.11132	C.1
   776	2	 19.3725	 18.2717	 6.46843	C.1
   777	2	 19.2689	 18.1195	 7.39022	C.1
   778	1	 3.33763	-10.9859	 6.01328	N.3
   779	2	  4.1852	-10.6533	 5.38729	C.1
   780	2	 4.40072	 -11.285	 6.04916	C.1
   781	2	 2.59072	-11.3195	 5.27053	C.1
   782	2	 2.80623	-11.9513	  5.9324	C.1
   783	2	 2.91369	-10.0373	 6.38921	C.1
   784	2	  3.1292	-10.6691	 7.05107	C.1
   785	1	-9.47718	 5.38769	 3.96324	N.3
   786	2	-8.83137	 4.81354	 4.65185	C.1
   787	2	 -8.3842	  5.2278	 3.93628	C.1
   788	2	-10.0198	 6.07349	  4.6386	C.1
   789	2	-9.57261	 6.48775	 3.92304	C.1
   790	2	-10.2512	 4.65464	 3.67261	C.1
   791	2	-9.80399	  5.0689	 2.95704	C.1
   792	1	-2.04299	 14.7825	 17.6634	N.3
   793	2	-1.40742	  15.686	 17.6389	C.1
   794	2	-1.84244	 15.4811	 16.8312	C.1
   795	2	-2.71146	 14.9672	 18.5236	C.1
   796	2	-3.14648	 14.7622	 17.7159	C.1
   797	2	-1.35755	 14.0016	 18.0394	C.1
   798	2	-1.79257	 13.7967	 17.2317	C.1
   799	1	 16.8191	-10.2512	-6.45161	N.3
   800	2	 17.0866	-11.2012	-5.95482	C.1
   801	2	 16.7439	-10.5355	-5.38652	C.1
   802	2	 16.1403	-10.5723	-7.26213	C.1
   803	2	 15.7976	-9.90658	-6.69384	C.1
   804	2	 17.7445	 -9.9786	-6.99031	C.1
   805	2	 17.4018	-9.31286	-6.42202	C.1
   806	1	 -3.3918	-1.74645	-1.29727	N.3
   807	2	-3.87018	-2.72545	-1.11394	C.1
   808	2	-2.94186	 -2.7549	-1.25868	C.1
   809	2	-3.71334	-1.14187	-0.43012	C.1
   810	2	-2.78501	-1.17131	-0.574859	C.1
   811	2	-3.98437	-1.32787	-2.13064	C.1
   812	2	-3.05605	-1.35731	-2.27538	C.1
   813	1	 18.6623	 5.05815	-1.02956	N.3
   814	2	 18.0948	 5.51058	-1.86274	C.1
   815	2	 17.5702	 5.14519	-1.17362	C.1
   816	2	 19.3462	 5.86891	-0.720123	C.1
   817	2	 18.8216	 5.50352	-0.0310021	C.1
   818	2	 19.3327	 4.34304	-1.53948	C.1
   819	2	 18.8081	 3.97764	-0.850361	C.1
   820	1	 -19.493	 17.4292	 17.2704	N.3
   821	2	-18.8092	 17.6895	 16.4425	C.1
   822	2	-19.4977	 18.3092	 16.6023	C.1
   823	2	-18.8075	 17.2588	 18.1201	C.1
   824	2	 -19.496	 17.8785	 18.2799	C.1
   825	2	-19.8295	 16.4097	 17.0091	C.1
   826	2	 -20.518	 17.0294	 17.1688	C.1
   827	1	-7.51274	-16.7567	 16.1843	N.3
   828	2	-8.55793	-16.4567	 16.3803	C.1
   829	2	-8.29013	-17.2612	  16.786	C.1
   830	2	-6.93355	-15.8643	 16.4826	C.1
   831	2	-6.66574	-16.6689	 16.8883	C.1
   832	2	-7.44844	-16.7424	 15.0813	C.1
   833	2	-7.18063	 -17.547	  15.487	C.1
   834	1	  16.357	-3.41952	 17.2953	N.3
   835	2	 16.8399	-4.40642	 17.4123	C.1
   836	2	 16.8786	-4.04253	 16.5465	C.1
   837	2	 16.8345	-2.80958	 18.0832	C.1
   838	2	 16.8731	-2.44569	 17.2174	C.1
   839	2	 15.3385	 -3.5884	  17.689	C.1
   840	2	 15.3772	-3.22451	 16.8232	C.1
   841	1	-14.5286	 4.04025	-19.1436	N.3
   842	2	-15.4156	 4.52702	-19.5876	C.1
   843	2	-14.9253	 3.97889	-20.1731	C.1
   844	2	-14.9396	 3.52897	-18.2545	C.1
   845	2	-14.4493	 2.98084	  -18.84	C.1
   846	2	-13.9661	 4.88694	-18.7106	C.1
   847	2	-13.4758	 4.33881	-19.2961	C.1
   848	1	-16.9459	-14.0746	 16.4107	N.3
   849	2	-16.5657	-14.9169	 17.0164	C.1
   850	2	-15.9388	-14.2408	 16.8338	C.1
   851	2	-17.8418	-13.7468	 16.9682	C.1
   852	2	-17.2148	-13.0706	 16.7856	C.1
   853	2	-17.3707	-14.5744	 15.5215	C.1
   854	2	-16.7437	-13.8982	 15.3389	C.1
   855	1	 18.6682	-13.0788	  11.814	N.3
   856	2	 19.0954	-12.7121	 10.8632	C.1
   857	2	 18.1623	-12.8263	 10.8647	C.1
   858	2	 19.0548	-12.3598	 12.5586	C.1
   859	2	 18.1218	 -12.474	   12.56	C.1
   860	2	  19.254	-13.9932	 12.0181	C.1
   861	2	 18.3209	-14.1074	 12.0195	C.1
   862	1	-6.20544	 -11.943	 10.3817	N.3
   863	2	-6.22073	-12.2003	 11.4561	C.1
   864	2	-6.26783	-11.2813	 11.2643	C.1
   865	2	-7.02672	 -12.553	 9.96419	C.1
   866	2	-7.07382	 -11.634	 9.77238	C.1
   867	2	 -5.2982	-12.4543	 10.0124	C.1
   868	2	-5.34531	-11.5353	 9.82061	C.1
   869	1	 3.78578	 9.17985	 1.04993	N.3
   870	2	 4.69001	 9.77621	 1.26816	C.1
   871	2	 4.17819	  10.078	0.539766	C.1
   872	2	 3.25667	 9.15923	 2.01972	C.1
   873	2	 2.74485	 9.46101	 1.29132	C.1
   874	2	 4.17839	 8.15145	0.954518	C.1
   875	2	 3.66656	 8.45324	0.226121	C.1
   876	1	 9.50968	 10.0103	 11.6944	N.3
   877	2	 9.18843	 9.98554	 12.7513	C.1
   878	2	 9.96594	 10.4857	 12.5813	C.1
   879	2	 8.60401	 10.3544	 11.1631	C.1
   880	2	 9.38153	 10.8546	 10.9931	C.1
   881	2	 9.57032	 8.94081	 11.4236	C.1
   882	2	 10.3478	   9.441	 11.2537	C.1
   883	1	 13.2393	-8.75184	-18.6796	N.3
   884	2	 13.5497	-8.80379	-19.7387	C.1
   885	2	 12.6295	-8.91948	-19.5856	C.1
   886	2	 13.6541	-7.78495	 -18.342	C.1
   887	2	 12.7339	-7.90064	-18.1888	C.1
   888	2	 13.8945	-9.49323	-18.1877	C.1
   889	2	 12.9743	-9.60892	-18.0345	C.1
   890	1	-6.18095	-13.8967	 -15.497	N.3
   891	2	-7.02028	-13.5678	-14.8581	C.1
   892	2	-7.26633	-14.0658	-15.6164	C.1
   893	2	-5.51339	-14.4188	 -14.788	C.1
   894	2	-5.75944	-14.9169	-15.5463	C.1
   895	2	 -5.6401	-12.9565	-15.7074	C.1
   896	2	-5.88614	-13.4545	-16.4657	C.1
   897	1	-8.67801	 -11.707	 2.17288	N.3
   898	2	-9.09675	-12.3116	 2.99751	C.1
   899	2	-8.89225	-11.4211	 3.21848	C.1
   900	2	 -9.4216	-11.8319	 1.36522	C.1
   901	2	-9.21711	-10.9414	  1.5862	C.1
   902	2	-7.82243	-12.3131	 1.82445	C.1
   903	2	-7.61793	-11.4226	 2.04543	C.1
   904	1	-7.77167	 7.96949	-16.6237	N.3
   905	2	-7.60457	 9.06161	-16.6082	C.1
   906	2	-7.85688	 8.70755	-17.4416	C.1
   907	2	-8.49945	 7.81366	-15.8071	C.1
   908	2	-8.75177	  7.4596	-16.6405	C.1
   909	2	-6.83252	 7.56428	-16.2058	C.1
   910	2	-7.08484	 7.21022	-17.0392	C.1
   911	1	-11.9955	 11.6046	-9.74325	N.3
   912	2	-12.0629	 12.7073	-9.76457	C.1
   913	2	 -12.063	 12.2903	 -10.607	C.1
   914	2	-12.8257	 11.3137	-9.07471	C.1
   915	2	-12.8259	 10.8967	-9.91718	C.1
   916	2	-11.0977	 11.4183	-9.12676	C.1
   917	2	-11.0978	 11.0013	-9.96923	C.1
   918	1	-16.0977	-15.3574	-15.5995	N.3
   919	2	 -16.272	-16.0275	-14.7383	C.1
   920	2	-15.5669	 -16.281	-15.3059	C.1
   921	2	 -15.988	 -14.364	-15.1284	C.1
   922	2	-15.2828	-14.6175	-15.6959	C.1
   923	2	-17.0908	-15.3006	-16.0804	C.1
   924	2	-16.3857	-15.5541	-16.6479	C.1
   925	1	-19.6587	-2.01034	-3.23013	N.3
   926	2	-19.8165	-1.07646	-2.66105	C.1
   927	2	-19.1032	 -1.0561	-3.27294	C.1
   928	2	-20.6518	-2.20758	 -3.6724	C.1
   929	2	-19.9385	-2.18721	-4.28429	C.1
   930	2	-19.5776	-2.77752	-2.43912	C.1
   931	2	-18.8643	-2.75716	-3.05101	C.1
   932	1	-10.3556	 6.63344	-11.3575	N.3
   933	2	-10.6896	 7.62752	-11.7055	C.1
   934	2	-9.82476	 7.37869	 -11.977	C.1
   935	2	-11.1656	 5.96219	-11.6954	C.1
   936	2	-10.3007	 5.71336	-11.9668	C.1
   937	2	-10.5089	 6.68386	-10.2644	C.1
   938	2	-9.64399	 6.43503	-10.5358	C.1
   939	1	 6.59057	 8.46887	 8.39741	N.3
   940	2	 7.00342	 7.47793	 8.13572	C.1
   941	2	 6.16756	 7.46203	 8.56547	C.1
   942	2	 6.61487	 9.01432	 7.43681	C.1
   943	2	 5.77901	 8.99843	 7.86656	C.1
   944	2	  7.4072	  8.9382	 8.97507	C.1
   945	2	 6.57134	 8.92231	 9.40482	C.1
   946	1	-4.20325	 8.66385	-1.10237	N.3
   947	2	-4.82409	 8.95909	-0.237332	C.1
   948	2	-4.78916	 8.03532	-0.407711	C.1
   949	2	-3.22918	 9.13945	-0.888236	C.1
   950	2	-3.19425	 8.21568	-1.05861	C.1
   951	2	-4.60887	 9.27868	-1.92597	C.1
   952	2	-4.57394	 8.35491	-2.09635	C.1
   953	1	 17.6631	-17.1939	 8.46659	N.3
   954	2	 18.2327	-16.5506	 7.77182	C.1
   955	2	 17.6105	-17.1259	   7.365	C.1
   956	2	 17.2358	-16.4723	 9.18597	C.1
   957	2	 16.6135	-17.0475	 8.77915	C.1
   958	2	 18.4543	-17.6958	 9.05221	C.1
   959	2	  17.832	-18.2711	 8.64539	C.1
   960	1	-16.8537	  -14.14	-14.1986	N.3
   961	2	-17.1254	  -13.21	-14.7297	C.1
   962	2	-17.8505	-13.7049	-14.3936	C.1
   963	2	-16.1283	-13.7948	-13.4399	C.1
   964	2	-16.8533	-14.2898	-13.1038	C.1
   965	2	-16.2198	-14.6727	-14.9302	C.1
   966	2	-16.9448	-15.1676	-14.5941	C.1
   967	1	 12.0801	 17.9622	 3.66755	N.3
   968	2	 13.1654	 17.9351	 3.46179	C.1
   969	2	 12.7261	 17.1062	 3.40137	C.1
   970	2	 11.7113	 18.7411	 2.97605	C.1
   971	2	  11.272	 17.9122	 2.91562	C.1
   972	2	 12.0225	 18.4537	 4.65545	C.1
   973	2	 11.5832	 17.6249	 4.59503	C.1
   974	1	 6.67736	-15.7488	  17.418	N.3
   975	2	 7.71214	-15.6728	 17.7979	C.1
   976	2	 7.03938	-15.5388	 18.4406	C.1
   977	2	 6.66262	-16.7354	 16.9209	C.1
   978	2	 5.98986	-16.6014	 17.5635	C.1
   979	2	 6.66646	-15.0391	 16.5711	C.1
   980	2	  5.9937	-14.9051	 17.2138	C.1
   981	1	-18.9831	-9.59173	-19.4532	N.3
   982	2	-18.9794	-10.6202	 -19.857	C.1
   983	2	-19.6919	-10.4209	-19.2772	C.1
   984	2	-18.9258	-8.96382	-20.3605	C.1
   985	2	-19.6383	-8.76452	-19.7807	C.1
   986	2	-17.9753	-9.49011	-19.0116	C.1
   987	2	-18.6878	-9.29081	-18.4318	C.1
   988	1	 5.41487	-18.7073	0.432925	N.3
   989	2	 5.38744	-19.5865	-0.235736	C.1
   990	2	 4.55574	-19.1777	-0.0784597	C.1
   991	2	 6.17682	 -18.058	-0.0347212	C.1
   992	2	 5.34512	-17.6492	0.122555	C.1
   993	2	 5.92791	-19.0906	 1.33332	C.1
   994	2	 5.09622	-18.6818	 1.49059	C.1
   995	1	-12.8662	 4.74944	 10.6996	N.3
   996	2	-12.2135	 5.61826	 10.4999	C.1
   997	2	-12.9846	 5.56616	  9.9649	C.1
   998	2	 -13.052	 4.81776	 11.7867	C.1
   999	2	-13.8232	 4.76566	 11.2517	C.1
  1000	2	-12.1765	 3.89044	 10.6148	C.1
  1001	2	-12.9476	 3.83834	 10.0799	C.1
  1002	1	 1.62932	-11.9856	 0.28137	N.3
  1003	2	0.905607	-12.0534	 1.11356	C.1
  1004	2	 1.78127	-12.3242	 1.32212	C.1
  1005	2	 1.52899	-10.9382	-0.0559058	C.1
  1006	2	 2.40465	 -11.209	0.152656	C.1
  1007	2	 1.13986	 -12.559	-0.526389	C.1
  1008	2	 2.01553	-12.8298	-0.317827	C.1
  1009	1	 8.88263	-8.90302	 8.53487	N.3
  1010	2	 9.01343	-7.92618	 9.03445	C.1
  1011	2	  9.2283	-7.93927	 8.11943	C.1
  1012	2	 7.83864	-9.17247	 8.77641	C.1
  1013	2	  8.0535	-9.18556	 7.86139	C.1
  1014	2	 9.47352	-9.59079	 9.16629	C.1
  1015	2	 9.68838	-9.60387	 8.25127	C.1
  1016	1	  9.2017	 1.61725	-10.4149	N.3
  1017	2	 8.15227	 1.75701	-10.7313	C.1
  1018	2	 8.32555	 1.94464	-9.82665	C.1
  1019	2	 9.76762	 2.23076	 -11.139	C.1
  1020	2	 9.94089	 2.41839	-10.2343	C.1
  1021	2	 9.42529	0.582537	-10.7315	C.1
  1022	2	 9.59856	 0.77017	-9.82688	C.1
  1023	1	  9.3178	-12.9208	-16.2112	N.3
  1024	2	  8.6264	-13.5456	-15.6175	C.1
  1025	2	 8.55756	-12.6202	-15.4678	C.1
  1026	2	  9.1228	-13.2447	-17.2494	C.1
  1027	2	 9.05397	-12.3192	-17.0997	C.1
  1028	2	 10.3075	-13.3601	-15.9912	C.1
  1029	2	 10.2386	-12.4347	-15.8415	C.1
  1030	1	-13.4801	 6.50769	 -17.399	N.3
  1031	2	-14.2365	  7.1722	-17.8541	C.1
  1032	2	-13.9053	 7.45497	-17.0211	C.1
  1033	2	-12.7217	 6.40498	 -18.196	C.1
  1034	2	-12.3905	 6.68775	-17.3629	C.1
  1035	2	-13.9788	 5.52175	-17.3963	C.1
  1036	2	-13.6476	 5.80452	-16.5633	C.1
  1037	1	 1.35435	-19.0678	 12.0853	N.3
  1038	2	 1.15424	-19.1283	 11.0003	C.1
  1039	2	 1.19831	 -19.955	 11.4455	C.1
  1040	2	0.570166	-18.3794	 12.4487	C.1
  1041	2	0.614238	-19.2061	 12.8939	C.1
  1042	2	 2.27255	-18.4555	  12.139	C.1
  1043	2	 2.31662	-19.2822	 12.5842	C.1
  1044	1	 1.01094	 4.66791	0.224826	N.3
  1045	2	 1.40476	 3.73219	0.660989	C.1
  1046	2	 1.78642	 4.52222	0.998329	C.1
  1047	2	-0.0804731	 4.57422	0.369385	C.1
  1048	2	0.301186	 5.36424	0.706725	C.1
  1049	2	 1.13604	 4.51228	-0.861905	C.1
  1050	2	  1.5177	 5.30231	-0.524565	C.1
  1051	1	 11.2289	 10.3676	 7.72025	N.3
  1052	2	 11.2505	 9.81233	  8.6753	C.1
  1053	2	  11.034	 10.7242	 8.74775	C.1
  1054	2	 10.5412	 9.76935	 7.09577	C.1
  1055	2	 10.3246	 10.6812	 7.16821	C.1
  1056	2	 12.2199	 10.1533	 7.28102	C.1
  1057	2	 12.0033	 11.0652	 7.35346	C.1
  1058	1	-1.35938	-18.8806	-7.70359	N.3
  1059	2	-1.22388	-19.2983	-8.71752	C.1
  1060	2	-1.76424	-19.8099	-8.14321	C.1
  1061	2	 -1.7208	-17.8549	-7.89918	C.1
  1062	2	-2.26117	-18.3666	-7.32487	C.1
  1063	2	-0.322912	-18.7211	-7.35554	C.1
  1064	2	-0.863274	-19.2327	-6.78123	C.1
  1065	1	 13.8753	-12.6357	-18.1829	N.3
  1066	2	 13.6014	 -13.214	-19.0837	C.1
  1067	2	  13.574	-13.6946	-18.2764	C.1
  1068	2	 13.2038	-11.7595	-18.2314	C.1
  1069	2	 13.1764	-12.2402	 -17.424	C.1
  1070	2	 14.8618	-12.2125	-18.4447	C.1
  1071	2	 14.8344	-12.6932	-17.6374	C.1
  1072	1	-5.91691	-9.80982	-0.612286	N.3
  1073	2	-5.63902	-9.28082	0.317142	C.1
  1074	2	-6.51537	-9.62024	0.297006	C.1
  1075	2	-5.11779	 -10.565	-0.721703	C.1
  1076	2	-5.99414	-10.9044	-0.741839	C.1
  1077	2	-5.67941	-9.07453	-1.40209	C.1
  1078	2	-6.55576	-9.41394	-1.42223	C.1
  1079	1	-14.9515	 11.8435	 2.81926	N.3
  1080	2	-14.2509	 11.9163	 3.67055	C.1
  1081	2	 -14.612	 11.0613	 3.52189	C.1
  1082	2	-14.3704	 12.2612	  1.9774	C.1
  1083	2	-14.7315	 11.4061	 1.82874	C.1
  1084	2	-15.6916	 12.6357	 3.03281	C.1
  1085	2	-16.0527	 11.7807	 2.88415	C.1
  1086	1	-4.20199	-3.33142	-17.8277	N.3
  1087	2	-3.55323	-2.65221	-17.2458	C.1
  1088	2	-3.72922	-2.37886	-18.1278	C.1
  1089	2	-5.09284	-3.44324	-17.1837	C.1
  1090	2	-5.26883	-3.16989	-18.0657	C.1
  1091	2	-3.69593	-4.30884	-17.7307	C.1
  1092	2	-3.87192	-4.03549	-18.6127	C.1
  1093	1	-15.6044	 18.4162	-4.52596	N.3
  1094	2	-15.0296	 17.4727	-4.54725	C.1
  1095	2	-14.5771	 18.2083	-4.17607	C.1
  1096	2	-16.5393	 18.1308	-4.01091	C.1
  1097	2	-16.0868	 18.8664	-3.63973	C.1
  1098	2	-15.9229	 18.5417	 -5.5765	C.1
  1099	2	-15.4704	 19.2772	-5.20532	C.1
  1100	1	 16.5861	-9.83609	 16.5611	N.3
  1101	2	 17.5941	 -10.064	 16.9521	C.1
  1102	2	 17.0657	 -10.814	 16.7474	C.1
  1103	2	 16.7916	-9.15994	 15.7117	C.1
  1104	2	 16.2632	-9.90991	 15.5069	C.1
  1105	2	 16.1653	 -9.1594	 17.3264	C.1
  1106	2	 15.6368	-9.90937	 17.1217	C.1
  1107	1	-12.2223	-16.1141	 10.7769	N.3
  1108	2	-12.2072	-15.3628	 11.5869	C.1
  1109	2	-11.4878	 -15.315	 10.9838	C.1
  1110	2	-13.2225	-15.9803	 10.3269	C.1
  1111	2	-12.5031	-15.9325	 9.72375	C.1
  1112	2	-12.3163	-17.0709	 11.3215	C.1
  1113	2	-11.5969	-17.0231	 10.7184	C.1
  1114	1	-10.6677	  18.041	 10.7391	N.3
  1115	2	-10.0328	 17.4507	  10.054	C.1
  1116	2	-10.6219	 18.0516	 9.63511	C.1
  1117	2	-9.93637	 18.5023	 11.4269	C.1
  1118	2	-10.5255	 19.1032	  11.008	C.1
  1119	2	-11.1504	 17.2686	 11.3646	C.1
  1120	2	-11.7395	 17.8694	 10.9458	C.1
  1121	1	 19.2386	 8.07731	-7.04283	N.3
  1122	2	 18.9294	 8.93269	-7.67022	C.1
  1123	2	 19.1856	 8.16186	-8.14326	C.1
  1124	2	 18.3827	  7.9449	 -6.3567	C.1
  1125	2	 18.6389	 7.17406	-6.82974	C.1
  1126	2	 20.0193	 8.51059	  -6.392	C.1
  1127	2	 20.2756	 7.73976	-6.86504	C.1
  1128	1	 -19.284	 12.2752	 5.14416	N.3
  1129	2	-19.9074	 13.1318	 4.83013	C.1
  1130	2	-19.9507	 12.3788	 4.26915	C.1
  1131	2	-19.6003	 12.1021	 6.18858	C.1
  1132	2	-19.6436	 11.3491	  5.6276	C.1
  1133	2	-18.2792	 12.7213	 5.25522	C.1
  1134	2	-18.3226	 11.9683	 4.69424	C.1
  1135	1	-1.93386	 5.19729	-0.507648	N.3
  1136	2	-2.99556	  5.5016	-0.474482	C.1
  1137	2	-2.72323	 5.08691	 -1.2729	C.1
  1138	2	-1.81843	 4.58353	0.403847	C.1
  1139	2	 -1.5461	 4.16884	-0.394573	C.1
  1140	2	-1.39609	 6.12878	-0.254679	C.1
  1141	2	-1.12376	 5.71409	 -1.0531	C.1
  1142	1	-10.7217	  -14.22	 15.6972	N.3
  1143	2	-10.3369	-14.7792	 16.5691	C.1
  1144	2	-11.2256	-14.9719	 16.3311	C.1
  1145	2	-9.97025	-14.4253	 14.9137	C.1
  1146	2	 -10.859	 -14.618	 14.6757	C.1
  1147	2	 -10.525	-13.1665	  15.966	C.1
  1148	2	-11.4138	-13.3592	  15.728	C.1
  1149	1	  4.1638	-15.8317	-17.6171	N.3
  1150	2	 4.65506	-15.3037	-18.4542	C.1
  1151	2	 3.82317	-15.6906	-18.6587	C.1
  1152	2	 4.14419	-15.0713	-16.8157	C.1
  1153	2	 3.31229	-15.4583	-17.0202	C.1
  1154	2	 4.93998	-16.5396	-17.2747	C.1
  1155	2	 4.10808	-16.9265	-17.4792	C.1
  1156	1	  5.3396	 11.5079	-1.87876	N.3
  1157	2	 5.18968	 12.5583	-2.18702	C.1
  1158	2	  4.4339	 12.0055	-2.26982	C.1
  1159	2	 5.74429	 11.6004	-0.854792	C.1
  1160	2	 4.98851	 11.0477	-0.937597	C.1
  1161	2	 6.21851	  11.194	-2.47028	C.1
  1162	2	 5.46273	 10.6413	-2.55308	C.1
  1163	1	-4.40593	 15.4229	-0.914246	N.3
  1164	2	 -4.3571	 14.3331	-0.738308	C.1
  1165	2	-3.91167	  14.634	-1.50945	C.1
  1166	2	-4.03899	  15.849	0.0368785	C.1
  1167	2	-3.59355	 16.1499	-0.734266	C.1
  1168	2	-5.48985	 15.6352	-0.884593	C.1
  1169	2	-5.04442	 15.9361	-1.65574	C.1
  1170	1	-12.6243	 17.2859	-9.24461	N.3
  1171	2	-13.6015	 17.5768	 -8.8188	C.1
  1172	2	-12.9958	 17.1982	 -8.2077	C.1
  1173	2	-12.2776	 18.2121	-9.73737	C.1
  1174	2	-11.6719	 17.8335	-9.12627	C.1
  1175	2	-12.9022	 16.6366	-10.0943	C.1
  1176	2	-12.2966	  16.258	-9.48322	C.1
  1177	1	 17.2637	-14.4594	-1.43324	N.3
  1178	2	 16.5464	-14.3115	-2.26055	C.1
  1179	2	 16.1955	-14.7344	-1.49787	C.1
  1180	2	 17.6672	-13.4447	-1.26432	C.1
  1181	2	 17.3163	-13.8676	-0.50165	C.1
  1182	2	 18.1039	-14.9877	-1.91885	C.1
  1183	2	 17.7531	-15.4105	-1.15617	C.1
  1184	1	-14.9881	 4.44613	-11.2212	N.3
  1185	2	-14.6128	 3.90359	-12.1076	C.1
  1186	2	-15.5295	 3.79425	-11.9303	C.1
  1187	2	-14.6661	 5.48667	-11.4069	C.1
  1188	2	-15.5828	 5.37733	-11.2296	C.1
  1189	2	-14.3103	 4.11214	 -10.415	C.1
  1190	2	-15.2269	  4.0028	-10.2377	C.1
  1191	1	 9.27124	 2.85882	-17.1276	N.3
  1192	2	 8.65577	 3.04372	-16.2288	C.1
  1193	2	 8.17304	 2.83536	 -17.008	C.1
  1194	2	 9.98082	 2.08108	-16.7923	C.1
  1195	2	  9.4981	 1.87272	-17.5715	C.1
  1196	2	 9.90121	  3.7642	 -17.193	C.1
  1197	2	 9.41849	 3.55584	-17.9722	C.1
  1198	1	 13.2714	-2.32239	  15.056	N.3
  1199	2	 13.0962	 -3.3555	 14.7054	C.1
  1200	2	 13.4732	-3.28294	 15.5635	C.1
  1201	2	  12.283	-1.84356	 14.9349	C.1
  1202	2	 12.6599	-1.77099	 15.7929	C.1
  1203	2	 13.8694	-1.87696	 14.2407	C.1
  1204	2	 14.2464	-1.80439	 15.0987	C.1
  1205	1	 11.3994	 0.44011	 1.70164	N.3
  1206	2	 11.3173	-0.179042	 2.61312	C.1
  1207	2	 11.6299	0.696604	  2.7514	C.1
  1208	2	 10.3919	0.365922	 1.25421	C.1
  1209	2	 10.7045	 1.24157	  1.3925	C.1
  1210	2	 12.0202	-0.180019	 1.03015	C.1
  1211	2	 12.3329	0.695627	 1.16844	C.1
  1212	1	-10.3901	 7.37639	 -18.818	N.3
  1213	2	-9.95129	 6.41301	-19.1347	C.1
  1214	2	-10.8902	  6.4518	-19.1586	C.1
  1215	2	-9.87281	 8.11251	-19.4594	C.1
  1216	2	-10.8117	  8.1513	-19.4833	C.1
  1217	2	-9.93784	 7.54546	-17.8242	C.1
  1218	2	-10.8767	 7.58425	-17.8481	C.1
  1219	1	-13.1725	  11.378	 19.2164	N.3
  1220	2	-12.4997	 11.9752	 19.8579	C.1
  1221	2	-13.4178	 12.0961	 20.0195	C.1
  1222	2	 -12.803	 10.3459	 19.3545	C.1
  1223	2	 -13.721	 10.4669	 19.5161	C.1
  1224	2	-12.8378	 11.6315	 18.1943	C.1
  1225	2	-13.7559	 11.7525	  18.356	C.1
  1226	1	 -2.7709	   2.373	0.551823	N.3
  1227	2	 -3.0213	 2.07211	  1.5851	C.1
  1228	2	 -2.1987	 2.51611	 1.48617	C.1
  1229	2	-3.65789	 2.95069	0.234991	C.1
  1230	2	-2.83529	 3.39469	0.136061	C.1
  1231	2	-2.86742	 1.43021	-0.0162273	C.1
  1232	2	-2.04482	 1.87421	-0.115158	C.1
  1233	1	 17.9502	 18.6169	 12.5584	N.3
  1234	2	 18.5284	  17.784	 12.9976	C.1
  1235	2	 18.3369	 18.4918	 13.5858	C.1
  1236	2	 17.0669	 18.1117	 12.1278	C.1
  1237	2	 16.8755	 18.8195	  12.716	C.1
  1238	2	 18.5423	 18.8933	 11.6675	C.1
  1239	2	 18.3509	 19.6011	 12.2557	C.1
  1240	1	-18.5286	 8.47461	 10.9847	N.3
  1241	2	 -18.908	 9.46276	 11.3017	C.1
  1242	2	-18.6097	 9.41576	 10.4115	C.1
  1243	2	-19.3592	 7.79172	 11.2388	C.1
  1244	2	 -19.061	 7.74473	 10.3486	C.1
  1245	2	-17.7659	 8.23983	 11.7489	C.1
  1246	2	-17.4676	 8.19283	 10.8588	C.1
  1247	1	-17.1524	  18.852	-16.0602	N.3
  1248	2	-16.2067	 18.9013	-15.4909	C.1
  1249	2	-16.5324	 19.7281	-15.7975	C.1
  1250	2	-17.8285	 18.3035	-15.3798	C.1
  1251	2	-18.1542	 19.1302	-15.6864	C.1
  1252	2	-16.9334	  18.111	  -16.85	C.1
  1253	2	-17.2592	 18.9377	-17.1566	C.1
  1254	1	-1.74646	-10.0998	-12.3174	N.3
  1255	2	-0.944624	 -10.703	  -12.78	C.1
  1256	2	-0.878656	-10.5975	-11.8483	C.1
  1257	2	-2.66972	-10.5937	-12.6703	C.1
  1258	2	-2.60375	-10.4881	-11.7386	C.1
  1259	2	  -1.724	-9.16086	-12.8995	C.1
  1260	2	-1.65803	-9.05535	-11.9678	C.1
  1261	1	-11.7031	  12.699	-14.0506	N.3
  1262	2	-10.6711	  12.326	-14.1808	C.1
  1263	2	-11.0277	 12.7823	-14.9212	C.1
  1264	2	-11.6425	 13.2898	-13.1189	C.1
  1265	2	 -11.999	 13.7462	-13.8593	C.1
  1266	2	-12.2607	 11.7966	-13.7416	C.1
  1267	2	-12.6173	 12.2529	 -14.482	C.1
  1268	1	-12.2607	-8.69886	-7.06593	N.3
  1269	2	-12.5763	 -9.4935	-6.36607	C.1
  1270	2	-11.6513	-9.44638	-6.52664	C.1
  1271	2	-12.7094	-7.78718	-6.63197	C.1
  1272	2	-11.7844	-7.74005	-6.79254	C.1
  1273	2	-12.8837	-8.88658	 -7.9589	C.1
  1274	2	-11.9588	-8.83945	-8.11947	C.1
  1275	1	 14.9497	 14.6724	 17.7638	N.3
  1276	2	 14.8994	 15.7676	 17.6257	C.1
  1277	2	 15.7172	 15.3714	 17.3852	C.1
  1278	2	 14.0684	 14.3069	 17.2064	C.1
  1279	2	 14.8862	 13.9106	 16.9659	C.1
  1280	2	 14.6545	 14.5372	 18.8199	C.1
  1281	2	 15.4723	  14.141	 18.5794	C.1
  1282	1	 10.5461	-6.47812	 18.1079	N.3
  1283	2	 10.5908	-7.29046	 17.3603	C.1
  1284	2	  10.206	-7.52662	 18.1847	C.1
  1285	2	 10.0326	-5.66374	 17.5657	C.1
  1286	2	  9.6478	-5.89991	 18.3901	C.1
  1287	2	  11.592	-6.12592	 18.1612	C.1
  1288	2	 11.2072	-6.36208	 18.9856	C.1
  1289	1	-11.1682	 -2.5257	-0.507602	N.3
  1290	2	-10.8394	-1.48144	-0.358188	C.1
  1291	2	-10.3632	-1.96096	-1.01158	C.1
  1292	2	-12.2523	-2.42472	-0.695618	C.1
  1293	2	-11.7761	-2.90424	-1.34901	C.1
  1294	2	-11.1271	-2.95166	0.511089	C.1
  1295	2	 -10.651	-3.43117	-0.142303	C.1
  1296	1	 14.3776	-0.0280873	 4.92122	N.3
  1297	2	 14.5509	-0.127822	 6.00792	C.1
  1298	2	 13.8161	0.407006	 5.76762	C.1
  1299	2	 14.3286	-1.07654	 4.57597	C.1
  1300	2	 13.5939	-0.541716	 4.33567	C.1
  1301	2	 15.3553	0.317862	 4.54021	C.1
  1302	2	 14.6206	 0.85269	 4.29991	C.1
  1303	1	-7.50617	-10.0378	 8.95811	N.3
  1304	2	-7.85585	-9.00531	  8.7773	C.1
  1305	2	-7.57608	-9.18448	 9.65663	C.1
  1306	2	-6.73461	-10.1829	 8.18062	C.1
  1307	2	-6.45484	-10.3621	 9.05996	C.1
  1308	2	 -8.3477	-10.6563	  8.5974	C.1
  1309	2	-8.06793	-10.8354	 9.47673	C.1
  1310	1	 -12.919	-16.3261	-19.1533	N.3
  1311	2	-12.4823	-16.3476	-20.1681	C.1
  1312	2	-12.1801	-15.6482	-19.6176	C.1
  1313	2	 -12.721	-17.3438	-18.7715	C.1
  1314	2	-12.4188	-16.6444	 -18.221	C.1
  1315	2	-14.0069	-16.3358	-19.3462	C.1
  1316	2	-13.7046	-15.6364	-18.7957	C.1
  1317	1	  16.353	-6.48999	-11.7229	N.3
  1318	2	 16.0875	-7.40391	-12.2843	C.1
  1319	2	 16.2245	-6.63709	-12.8105	C.1
  1320	2	 17.2225	-6.80768	-11.1198	C.1
  1321	2	 17.3596	-6.04087	-11.6459	C.1
  1322	2	 15.5433	-6.40859	-10.9754	C.1
  1323	2	 15.6804	-5.64178	-11.5016	C.1
  1324	1	-7.72901	-19.8989	-13.2784	N.3
  1325	2	-7.10287	-20.2758	-12.4497	C.1
  1326	2	-8.02946	-20.3787	-12.3295	C.1
  1327	2	-7.31031	  -20.41	 -14.164	C.1
  1328	2	 -8.2369	-20.5129	-14.0438	C.1
  1329	2	-7.38396	-18.8565	-13.4018	C.1
  1330	2	-8.31055	-18.9594	-13.2816	C.1
  1331	1	  4.8859	-16.6669	 4.24469	N.3
  1332	2	 4.28724	-15.9861	 3.61303	C.1
  1333	2	 3.78956	-16.5439	 4.18289	C.1
  1334	2	 5.59129	 -15.985	 4.75294	C.1
  1335	2	 5.09362	-16.5429	  5.3228	C.1
  1336	2	 5.52569	-17.1929	 3.51331	C.1
  1337	2	 5.02801	-17.7507	 4.08318	C.1
  1338	1	-8.24189	 16.5042	-17.7332	N.3
  1339	2	-8.54952	  17.425	-17.2056	C.1
  1340	2	-8.38127	  17.528	-18.1247	C.1
  1341	2	  -9.044	 15.7878	-17.4795	C.1
  1342	2	-8.87576	 15.8908	-18.3986	C.1
  1343	2	-7.38453	 16.1453	-17.1357	C.1
  1344	2	-7.21628	 16.2482	-18.0548	C.1
  1345	1	 11.2825	 -4.7131	 16.4103	N.3
  1346	2	 11.1334	-4.22377	 15.4309	C.1
  1347	2	 10.5645	-3.92594	 16.1174	C.1
  1348	2	 12.3619	-4.57355	 16.6007	C.1
  1349	2	  11.793	-4.27572	 17.2871	C.1
  1350	2	 11.2054	-5.78873	 16.1695	C.1
  1351	2	 10.6366	-5.49091	  16.856	C.1
  1352	1	 4.34144	 8.70928	-2.90793	N.3
  1353	2	 5.21656	 9.32963	-3.17293	C.1
  1354	2	 4.70378	 9.02965	 -3.9014	C.1
  1355	2	  3.7989	 9.33658	-2.17787	C.1
  1356	2	 3.28612	  9.0366	-2.90634	C.1
  1357	2	 4.77804	 7.91159	-2.28029	C.1
  1358	2	 4.26526	  7.6116	-3.00876	C.1
  1359	1	 9.60697	 12.0762	-7.35537	N.3
  1360	2	 10.2286	   11.95	-6.45066	C.1
  1361	2	 10.0126	  11.154	-6.90159	C.1
  1362	2	  10.174	 12.8145	-7.95053	C.1
  1363	2	 9.95801	 12.0185	-8.40146	C.1
  1364	2	 8.74226	  12.658	-6.98853	C.1
  1365	2	 8.52626	  11.862	-7.43946	C.1
  1366	1	-5.79488	-0.128187	 10.8432	N.3
  1367	2	-4.71459	-0.340852	 10.9361	C.1
  1368	2	-5.17376	-0.240365	 11.7501	C.1
  1369	2	-6.15874	-0.94669	 10.1962	C.1
  1370	2	-6.61792	-0.846204	 11.0103	C.1
  1371	2	-5.82256	0.752252	 10.1761	C.1
  1372	2	-6.28174	0.852739	 10.9902	C.1
  1373	1	 -14.591	-9.16585	-5.85203	N.3
  1374	2	-13.8933	-8.37595	-5.52015	C.1
  1375	2	 -14.783	-8.26866	-5.23632	C.1
  1376	2	-14.0989	-10.0957	-5.51443	C.1
  1377	2	-14.9885	-9.98844	-5.23061	C.1
  1378	2	-14.4463	-9.18681	-6.94724	C.1
  1379	2	 -15.336	-9.07952	-6.66341	C.1
  1380	1	 19.6031	-11.6965	-15.8277	N.3
  1381	2	 20.1956	-11.4204	-14.9369	C.1
  1382	2	 20.5237	-12.1548	-15.4234	C.1
  1383	2	 19.5399	 -10.749	-16.3926	C.1
  1384	2	 19.8679	-11.4833	-16.8791	C.1
  1385	2	 18.5819	-11.8185	 -15.424	C.1
  1386	2	 18.9099	-12.5529	-15.9105	C.1
  1387	1	 1.93908	 7.98771	-7.75038	N.3
  1388	2	 2.43067	 7.07054	-8.12191	C.1
  1389	2	 1.81313	 7.46086	-8.71343	C.1
  1390	2	 2.78985	 8.63282	-7.46599	C.1
  1391	2	 2.17231	 9.02314	-8.05751	C.1
  1392	2	 1.52302	 7.67428	-6.77595	C.1
  1393	2	 0.90548	  8.0646	-7.36747	C.1
  1394	1	-0.112283	 -10.008	 12.1879	N.3
  1395	2	-0.576677	-10.9531	 12.5225	C.1
  1396	2	-1.18024	-10.2825	 12.2587	C.1
  1397	2	0.595546	-10.3373	  11.406	C.1
  1398	2	-0.00801407	 -9.6667	 11.1422	C.1
  1399	2	0.549623	 -9.7395	 13.0309	C.1
  1400	2	-0.0539371	-9.06888	 12.7671	C.1
  1401	1	 14.3594	-9.03048	-11.9876	N.3
  1402	2	 15.1996	-8.97723	-12.7032	C.1
  1403	2	 14.8767	-9.84274	-12.5294	C.1
  1404	2	 13.6194	-8.32959	-12.4142	C.1
  1405	2	 13.2965	 -9.1951	-12.2404	C.1
  1406	2	 14.7437	-8.48635	 -11.106	C.1
  1407	2	 14.4207	-9.35185	-10.9322	C.1
  1408	1	 6.74251	-6.79393	-11.7284	N.3
  1409	2	 5.83536	-7.00549	-12.3228	C.1
  1410	2	 5.97312	-7.57431	-11.5872	C.1
  1411	2	 6.63794	-5.72222	-11.4807	C.1
  1412	2	 6.77571	-6.29104	-10.7452	C.1
  1413	2	 7.54758	-6.80084	-12.4852	C.1
  1414	2	 7.68534	-7.36967	-11.7496	C.1
  1415	1	 14.3497	 16.4706	 16.5036	N.3
  1416	2	 13.3276	 16.6584	 16.8792	C.1
  1417	2	 13.7235	 17.3771	 16.4205	C.1
  1418	2	 14.2357	 15.5427	 15.9145	C.1
  1419	2	 14.6315	 16.2614	 15.4559	C.1
  1420	2	 14.8919	 16.1325	  17.405	C.1
  1421	2	 15.2877	 16.8512	 16.9463	C.1
  1422	1	-16.1196	 11.2551	 6.04144	N.3
  1423	2	-15.1284	 10.7671	 6.05588	C.1
  1424	2	 -15.155	 11.6292	  6.4295	C.1
  1425	2	-16.7747	  10.511	  6.5293	C.1
  1426	2	-16.8013	 11.3732	 6.90292	C.1
  1427	2	-16.4157	 11.1941	 4.97869	C.1
  1428	2	-16.4424	 12.0562	 5.35231	C.1
  1429	1	 8.83647	-0.00564987	 9.07287	N.3
  1430	2	 8.04956	 0.55234	 9.61169	C.1
  1431	2	 8.48171	-0.114678	 10.1136	C.1
  1432	2	 9.49495	0.794016	 8.68843	C.1
  1433	2	 9.92709	0.126998	 9.19036	C.1
  1434	2	 8.31669	-0.362779	  8.1656	C.1
  1435	2	 8.74883	 -1.0298	 8.66754	C.1
  1436	1	0.904328	 11.4551	 8.56231	N.3
  1437	2	  1.2434	 10.4681	 8.92539	C.1
  1438	2	0.665255	 10.9303	 9.50483	C.1
  1439	2	0.486941	 11.2275	 7.56488	C.1
  1440	2	-0.0912019	 11.6897	 8.14431	C.1
  1441	2	 1.84986	 11.9763	 8.32751	C.1
  1442	2	 1.27172	 12.4385	 8.90695	C.1
  1443	1	 16.5259	 2.91966	-11.7971	N.3
  1444	2	 16.1944	 1.87083	-11.6925	C.1
  1445	2	 15.9361	 2.44345	-10.9932	C.1
  1446	2	 16.1545	 3.20329	-12.7983	C.1
  1447	2	 15.8962	 3.77591	-12.0991	C.1
  1448	2	 17.6163	 2.82593	-11.9494	C.1
  1449	2	  17.358	 3.39855	-11.2501	C.1
  1450	1	 -4.1005	-6.30878	-0.931116	N.3
  1451	2	-4.34851	-5.37808	-1.47259	C.1
  1452	2	-4.73448	-6.15994	-1.82377	C.1
  1453	2	-4.37816	-6.07543	0.112583	C.1
  1454	2	-4.76413	-6.85729	-0.238589	C.1
  1455	2	-2.99589	-6.30004	-0.906579	C.1
  1456	2	-3.38186	 -7.0819	-1.25775	C.1
  1457	1	 8.56924	 17.3625	  19.306	N.3
  1458	2	 8.90293	 16.3478	 19.5887	C.1
  1459	2	 9.40906	 16.7615	 18.9132	C.1
  1460	2	 8.54658	 17.8992	 20.2716	C.1
  1461	2	 9.05271	 18.3128	 19.5961	C.1
  1462	2	 7.49902	 17.2202	  19.071	C.1
  1463	2	 8.00515	 17.6338	 18.3955	C.1
  1464	1	 18.6239	-6.32083	-18.0044	N.3
  1465	2	 17.6456	 -6.4812	-18.4924	C.1
  1466	2	 18.0263	-5.63264	 -18.629	C.1
  1467	2	 19.2293	 -7.1713	-18.3665	C.1
  1468	2	 19.6099	-6.32274	 -18.503	C.1
  1469	2	 18.4259	-6.58284	-16.9494	C.1
  1470	2	 18.8065	-5.73428	 -17.086	C.1
  1471	1	0.117764	 2.78873	-9.93003	N.3
  1472	2	0.464237	 1.85454	-10.4077	C.1
  1473	2	0.961784	 2.12916	-9.65892	C.1
  1474	2	-0.952199	 2.59192	 -9.7369	C.1
  1475	2	-0.454652	 2.86654	-8.98815	C.1
  1476	2	0.0949345	  3.5078	-10.7686	C.1
  1477	2	0.592481	 3.78242	-10.0199	C.1
  1478	1	-19.5101	-3.64954	-17.3374	N.3
  1479	2	-20.4451	-3.24993	-17.7697	C.1
  1480	2	-20.2296	-4.12831	-18.0259	C.1
  1481	2	-19.6484	-3.49706	-16.2518	C.1
  1482	2	-19.4328	-4.37543	 -16.508	C.1
  1483	2	-18.7601	-2.88407	-17.6065	C.1
  1484	2	-18.5446	-3.76244	-17.8626	C.1
  1485	1	 11.9595	 1.84297	 17.3099	N.3
  1486	2	 12.0066	  2.8729	 17.7073	C.1
  1487	2	 11.6114	 2.24099	 18.2802	C.1
  1488	2	 13.0072	 1.63241	 17.0292	C.1
  1489	2	  12.612	  1.0005	  17.602	C.1
  1490	2	 11.4575	 1.97147	 16.3341	C.1
  1491	2	 11.0623	 1.33956	 16.9069	C.1
  1492	1	-4.57059	-6.17452	 4.78042	N.3
  1493	2	-5.14152	-6.01734	 5.71329	C.1
  1494	2	-5.57455	 -5.7371	 4.92745	C.1
  1495	2	-4.31498	-7.24879	 4.81868	C.1
  1496	2	-4.74802	-6.96855	 4.03284	C.1
  1497	2	-3.60571	-5.67779	 4.98807	C.1
  1498	2	-4.03874	-5.39755	 4.20223	C.1
  1499	1	-16.1668	-14.7634	 1.36755	N.3
  1500	2	-17.1326	-14.3597	 1.72143	C.1
  1501	2	-17.1206	-15.2861	 1.56244	C.1
  1502	2	  -15.45	-14.4081	 2.12964	C.1
  1503	2	-15.4381	-15.3344	 1.97065	C.1
  1504	2	-15.9358	-14.1329	0.490073	C.1
  1505	2	-15.9238	-15.0593	0.331088	C.1
  1506	1	 15.5707	 8.83097	 13.3277	N.3
  1507	2	 14.9078	 9.45521	 13.9536	C.1
  1508	2	 14.8141	 9.57773	 13.0263	C.1
  1509	2	 15.3685	 7.80663	 13.6892	C.1
  1510	2	 15.2748	 7.92916	 12.7619	C.1
  1511	2	 16.5763	 9.04728	 13.7311	C.1
  1512	2	 16.4826	 9.16981	 12.8038	C.1
  1513	1	-15.5757	 19.3027	 12.2363	N.3
  1514	2	-14.7965	 19.2845	 13.0195	C.1
  1515	2	-15.4675	 18.6322	 13.1079	C.1
  1516	2	-14.9929	 19.2534	 11.2989	C.1
  1517	2	-15.6639	 18.6011	 11.3873	C.1
  1518	2	-15.9313	 20.3486	  12.258	C.1
  1519	2	-16.6023	 19.6962	 12.3463	C.1
  1520	1	-6.26406	-3.05998	 15.8073	N.3
  1521	2	 -6.7153	-3.99422	 16.1875	C.1
  1522	2	-6.15514	-4.09619	 15.4395	C.1
  1523	2	 -5.7791	-2.63115	 16.7028	C.1
  1524	2	-5.21894	-2.73312	 15.9548	C.1
  1525	2	-7.13803	-2.40161	 15.6537	C.1
  1526	2	-6.57787	-2.50358	 14.9058	C.1
  1527	1	-4.00929	 7.43785	-13.6747	N.3
  1528	2	 -4.2165	 6.36968	-13.8669	C.1
  1529	2	 -4.1014	 6.59815	-12.9624	C.1
  1530	2	-4.84167	 7.95287	-14.1873	C.1
  1531	2	-4.72656	 8.18134	-13.2828	C.1
  1532	2	-3.14236	  7.6483	-14.3266	C.1
  1533	2	-3.02726	 7.87677	-13.4221	C.1
  1534	1	-4.80567	 3.68159	 -10.675	N.3
  1535	2	-5.33339	 2.71425	-10.5934	C.1
  1536	2	 -4.4126	 2.68439	-10.4067	C.1
  1537	2	-5.39652	 4.34765	-10.0207	C.1
  1538	2	-4.47573	 4.31779	-9.83405	C.1
  1539	2	-5.06828	 4.02766	 -11.691	C.1
  1540	2	-4.14749	  3.9978	-11.5043	C.1
  1541	1	 -11.193	 8.07607	-1.15544	N.3
  1542	2	-11.7022	 7.10211	 -1.2697	C.1
  1543	2	-12.1518	 7.72758	-0.730985	C.1
  1544	2	-11.0187	 8.39397	 -2.1992	C.1
  1545	2	-11.4684	 9.01944	-1.66049	C.1
  1546	2	-10.1836	 7.79392	-0.805503	C.1
  1547	2	-10.6333	 8.41939	-0.266791	C.1
  1548	1	 12.9732	-3.49799	-13.6199	N.3
  1549	2	 13.2691	-2.65682	-12.9674	C.1
  1550	2	 12.5439	-3.16787	-12.6567	C.1
  1551	2	  13.917	-4.05594	-13.7565	C.1
  1552	2	 13.1918	-4.56698	-13.4458	C.1
  1553	2	 12.8211	-3.01465	-14.6018	C.1
  1554	2	 12.0959	 -3.5257	-14.2911	C.1
  1555	1	-5.48437	 1.80561	 13.4861	N.3
  1556	2	 -4.5181	 2.24403	 13.1778	C.1
  1557	2	-5.24918	 2.46129	 12.6284	C.1
  1558	2	-5.57943	 2.12019	  14.541	C.1
  1559	2	-6.31051	 2.33745	 13.9915	C.1
  1560	2	-5.25895	0.726701	 13.5636	C.1
  1561	2	-5.99004	0.943967	 13.0141	C.1
  1562	1	  11.982	 18.1171	-2.95558	N.3
  1563	2	 10.9549	 17.7487	-2.78156	C.1
  1564	2	 11.0204	 18.6588	 -3.0072	C.1
  1565	2	 12.3771	 17.4157	-3.71237	C.1
  1566	2	 12.4426	 18.3258	-3.93801	C.1
  1567	2	 12.5158	 17.8217	-2.03436	C.1
  1568	2	 12.5812	 18.7318	-2.25999	C.1
  1569	1	-8.50823	-12.3022	  7.4981	N.3
  1570	2	-9.40285	-11.6666	 7.36957	C.1
  1571	2	-8.62622	-11.2132	 7.64329	C.1
  1572	2	-8.42942	-12.8264	 6.52863	C.1
  1573	2	-7.65279	-12.3731	 6.80235	C.1
  1574	2	-8.85735	-13.0937	 8.18552	C.1
  1575	2	-8.08072	-12.6403	 8.45923	C.1
  1576	1	 10.5894	 5.16924	 9.33316	N.3
  1577	2	 11.3301	 5.88066	 8.92561	C.1
  1578	2	 10.9893	 6.10036	 9.77364	C.1
  1579	2	  11.113	 4.19803	 9.27425	C.1
  1580	2	 10.7721	 4.41773	 10.1223	C.1
  1581	2	 9.83638	 5.09948	 8.52759	C.1
  1582	2	 9.49552	 5.31918	 9.37562	C.1
  1583	1	-12.4696	 6.12879	 14.1421	N.3
  1584	2	-13.0439	 6.83648	 13.5173	C.1
  1585	2	-13.3633	 5.95243	 13.5167	C.1
  1586	2	-12.4521	 6.62153	 15.1309	C.1
  1587	2	-12.7715	 5.73748	 15.1303	C.1
  1588	2	-11.4336	 6.25444	 13.7789	C.1
  1589	2	-11.7531	 5.37039	 13.7783	C.1
  1590	1	-9.73714	-16.1365	 3.92771	N.3
  1591	2	-10.3502	-15.9674	 4.83129	C.1
  1592	2	-9.62307	-16.5521	 4.94512	C.1
  1593	2	-9.47151	-15.1128	 3.60756	C.1
  1594	2	-8.74435	-15.6975	  3.7214	C.1
  1595	2	-10.4804	-16.4521	 3.17354	C.1
  1596	2	-9.75326	-17.0368	 3.28738	C.1
  1597	1	 18.8647	 11.6191	 16.1443	N.3
  1598	2	 18.6117	 10.8325	 15.4108	C.1
  1599	2	 19.1993	 11.4964	 15.0984	C.1
  1600	2	 19.2256	 11.0446	 17.0164	C.1
  1601	2	 19.8132	 11.7085	  16.704	C.1
  1602	2	 17.8755	 11.9844	 16.4743	C.1
  1603	2	 18.4631	 12.6483	 16.1619	C.1
  1604	1	 10.7684	 14.3797	  4.4774	N.3
  1605	2	 9.67359	 14.2893	 4.35806	C.1
  1606	2	 10.1524	 13.4845	 4.27695	C.1
  1607	2	 10.8749	  14.894	 5.44948	C.1
  1608	2	 11.3537	 14.0892	 5.36838	C.1
  1609	2	 11.0384	 15.1629	 3.74631	C.1
  1610	2	 11.5172	  14.358	  3.6652	C.1
  1611	1	 8.86908	-9.14292	 15.5439	N.3
  1612	2	  7.8766	-9.32779	 15.0948	C.1
  1613	2	 8.44938	-10.0727	 15.1193	C.1
  1614	2	 8.62332	-8.70631	 16.5287	C.1
  1615	2	  9.1961	-9.45123	 16.5533	C.1
  1616	2	 9.24814	-8.27727	 14.9713	C.1
  1617	2	 9.82092	-9.02219	 14.9959	C.1
  1618	1	 -9.8223	 12.1377	 19.0725	N.3
  1619	2	-10.6563	 12.8231	 19.3078	C.1
  1620	2	-9.89812	 12.9129	 19.8561	C.1
  1621	2	-9.64714	 12.3133	 17.9957	C.1
  1622	2	-8.88892	 12.4031	  18.544	C.1
  1623	2	-10.3007	 11.1419	 19.0913	C.1
  1624	2	-9.54253	 11.2316	 19.6396	C.1
  1625	1	-6.59759	 19.6197	-19.4607	N.3
  1626	2	-7.03745	 20.4492	-18.8781	C.1
  1627	2	-6.21577	 20.1259	-18.5558	C.1
  1628	2	-6.57406	  20.019	-20.4906	C.1
  1629	2	-5.75238	 19.6958	-20.1683	C.1
  1630	2	-7.41378	 18.8758	-19.4968	C.1
  1631	2	 -6.5921	 18.5525	-19.1744	C.1
  1632	1	-15.3567	-1.35794	  18.624	N.3
  1633	2	-15.4525	-1.50711	 17.5334	C.1
  1634	2	-16.0952	-1.95169	 18.0557	C.1
  1635	2	-15.3453	-0.258023	 18.7285	C.1
  1636	2	 -15.988	-0.702603	 19.2508	C.1
  1637	2	-14.3083	-1.64182	 18.8267	C.1
  1638	2	-14.9511	-2.08639	 19.3491	C.1
  1639	1	 19.6149	 3.95957	-9.33912	N.3
  1640	2	 19.0435	 3.18648	-8.79434	C.1
  1641	2	 19.9713	 3.04197	-8.83729	C.1
  1642	2	 19.3078	 4.89756	 -8.8424	C.1
  1643	2	 20.2356	 4.75305	-8.88535	C.1
  1644	2	 19.1016	 4.01144	-10.3162	C.1
  1645	2	 20.0294	 3.86692	-10.3591	C.1
  1646	1	-10.3856	 8.83321	 2.47611	N.3
  1647	2	-10.3685	  9.8888	 2.80221	C.1
  1648	2	-9.92452	  9.7132	 1.99249	C.1
  1649	2	-11.4619	 8.58329	  2.4858	C.1
  1650	2	-11.0179	  8.4077	 1.67608	C.1
  1651	2	-9.99252	 8.29094	 3.35488	C.1
  1652	2	-9.54854	 8.11534	 2.54516	C.1
  1653	1	 4.74812	 6.55631	 0.56705	N.3
  1654	2	 5.47877	 5.78652	 0.87443	C.1
  1655	2	   5.835	 6.49963	 0.37627	C.1
  1656	2	 4.26698	 6.84257	 1.51963	C.1
  1657	2	 4.62321	 7.55568	 1.02147	C.1
  1658	2	 3.96428	 5.97016	0.0543279	C.1
  1659	2	 4.32051	 6.68328	-0.443831	C.1
  1660	1	 12.3643	-7.02674	 10.0738	N.3
  1661	2	 12.3449	-8.12867	  10.153	C.1
  1662	2	 12.5025	-7.67251	 10.9597	C.1
  1663	2	 11.4036	-6.79202	 9.58103	C.1
  1664	2	 11.5611	-6.33586	 10.3877	C.1
  1665	2	 13.1079	-6.84378	 9.27737	C.1
  1666	2	 13.2655	-6.38762	  10.084	C.1
  1667	1	  6.5682	  1.3407	-9.96674	N.3
  1668	2	 6.78818	0.998553	-10.9941	C.1
  1669	2	  6.7887	 1.93091	-10.8744	C.1
  1670	2	 7.30256	0.787779	-9.35367	C.1
  1671	2	 7.30307	 1.72013	-9.23404	C.1
  1672	2	 5.61309	0.837248	-9.73191	C.1
  1673	2	  5.6136	  1.7696	-9.61227	C.1
  1674	1	 5.37789	-0.453117	 18.7668	N.3
  1675	2	 6.36214	-0.422206	  19.268	C.1
  1676	2	 6.27825	0.136585	 18.5168	C.1
  1677	2	 4.66928	-0.245231	 19.5887	C.1
  1678	2	 4.58539	 0.31356	 18.8375	C.1
  1679	2	 5.22809	 -1.5301	 18.5706	C.1
  1680	2	  5.1442	-0.97131	 17.8194	C.1
  1681	1	-4.84903	-8.49442	 16.3928	N.3
  1682	2	-4.76221	-7.84442	 17.2821	C.1
  1683	2	-5.59293	-8.27205	 17.1789	C.1
  1684	2	 -3.9808	-9.17105	 16.4887	C.1
  1685	2	-4.81152	-9.59868	 16.3856	C.1
  1686	2	  -4.558	-7.82633	 15.5622	C.1
  1687	2	-5.38872	-8.25397	 15.4591	C.1
  1688	1	 7.26683	-19.0621	-1.59304	N.3
  1689	2	 7.51498	-18.0133	-1.34948	C.1
  1690	2	 7.06372	-18.1385	-2.16452	C.1
  1691	2	 6.72177	-19.4076	-0.696136	C.1
  1692	2	 6.27051	-19.5328	-1.51118	C.1
  1693	2	 8.24064	-19.5777	-1.51094	C.1
  1694	2	 7.78939	-19.7029	-2.32598	C.1
  1695	1	 7.58798	 8.31891	-5.17893	N.3
  1696	2	 8.17849	 7.63781	-5.81793	C.1
  1697	2	  8.6816	 8.16876	-5.22753	C.1
  1698	2	  6.8575	 7.64388	-4.69771	C.1
  1699	2	 7.36061	 8.17482	 -4.1073	C.1
  1700	2	  6.9733	 8.87862	-5.90677	C.1
  1701	2	 7.47641	 9.40956	-5.31637	C.1
  1702	1	-0.942635	  5.3343	 4.61768	N.3
  1703	2	-1.62416	 6.03875	 5.12775	C.1
  1704	2	-0.830659	 6.41886	 4.79687	C.1
  1705	2	-1.59036	 4.86213	 3.85717	C.1
  1706	2	-0.796857	 5.24223	 3.52629	C.1
  1707	2	-0.803641	 4.53187	 5.36443	C.1
  1708	2	-0.0101417	 4.91197	 5.03355	C.1
  1709	1	-2.71171	-5.82482	 1.69026	N.3
  1710	2	-2.12189	-6.48239	 1.02647	C.1
  1711	2	-1.82432	-6.44282	 1.91725	C.1
  1712	2	-3.74523	-6.19172	 1.55585	C.1
  1713	2	-3.44766	-6.15215	 2.44662	C.1
  1714	2	-2.71435	-4.85971	  1.1523	C.1
  1715	2	-2.41679	-4.82013	 2.04308	C.1
  1716	1	 16.7618	-14.7116	 15.9098	N.3
  1717	2	 16.8709	-15.7989	 15.7463	C.1
  1718	2	 16.5809	-15.5509	 16.6054	C.1
  1719	2	 16.1015	-14.3966	 15.0818	C.1
  1720	2	 15.8116	-14.1486	 15.9408	C.1
  1721	2	 17.7479	-14.3113	 15.6129	C.1
  1722	2	 17.4579	-14.0633	 16.4719	C.1
  1723	1	-0.0646828	-18.1762	 7.82781	N.3
  1724	2	-0.669413	-18.8309	 8.48093	C.1
  1725	2	-0.851197	-18.9052	 7.56167	C.1
  1726	2	0.973197	-18.4147	 8.12245	C.1
  1727	2	0.791412	 -18.489	 7.20319	C.1
  1728	2	-0.225155	-17.1716	 8.25894	C.1
  1729	2	-0.40694	-17.2459	 7.33968	C.1
  1730	1	 17.6051	-10.8838	-10.3846	N.3
  1731	2	 17.6803	-9.78144	-10.3954	C.1
  1732	2	 16.8302	-10.1221	-10.1837	C.1
  1733	2	 18.4166	-11.1856	-9.69815	C.1
  1734	2	 17.5665	-11.5262	-9.48645	C.1
  1735	2	 17.9935	-11.1733	-11.3776	C.1
  1736	2	 17.1433	-11.5139	-11.1659	C.1
  1737	1	 2.38542	-8.85469	 6.90104	N.3
  1738	2	 3.18121	-8.50577	 7.58359	C.1
  1739	2	  2.9077	-7.88161	 6.93612	C.1
  1740	2	 1.59204	-9.19457	 7.59089	C.1
  1741	2	 1.31853	-8.57041	 6.94342	C.1
  1742	2	 2.79327	-9.79997	 6.49984	C.1
  1743	2	 2.51976	-9.17581	 5.85238	C.1
  1744	1	-13.7446	 8.28812	-19.8658	N.3
  1745	2	-12.9162	 8.04389	-20.5551	C.1
  1746	2	-13.3831	 8.83477	-20.7554	C.1
  1747	2	-13.2613	 8.26643	-18.8724	C.1
  1748	2	-13.7282	 9.05732	-19.0728	C.1
  1749	2	-14.3559	 7.36773	-19.8694	C.1
  1750	2	-14.8228	 8.15861	-20.0698	C.1
  1751	1	-18.8672	-7.35035	 4.28998	N.3
  1752	2	-19.2706	-8.35729	 4.07964	C.1
  1753	2	-19.4949	-7.69699	 3.44932	C.1
  1754	2	-17.7846	-7.53288	 4.41441	C.1
  1755	2	-18.0089	-6.87259	  3.7841	C.1
  1756	2	-19.2099	-7.15132	 5.32138	C.1
  1757	2	-19.4342	-6.49103	 4.69106	C.1
  1758	1	 13.6956	-8.66373	-2.44232	N.3
  1759	2	 12.9437	-9.30841	-1.95243	C.1
  1760	2	 12.7895	-9.13559	-2.86345	C.1
  1761	2	 14.6502	-9.17162	-2.21528	C.1
  1762	2	  14.496	 -8.9988	 -3.1263	C.1
  1763	2	  13.724	-7.77038	-1.79273	C.1
  1764	2	 13.5699	-7.59756	-2.70375	C.1
  1765	1	-14.9038	 14.3593	-6.41381	N.3
  1766	2	-14.1227	 14.4728	-5.64055	C.1
  1767	2	 -14.902	 14.9789	-5.49889	C.1
  1768	2	-15.0555	 13.2659	-6.46105	C.1
  1769	2	-15.8349	  13.772	-6.31939	C.1
  1770	2	-14.3641	 14.5802	-7.35232	C.1
  1771	2	-15.1434	 15.0863	-7.21066	C.1
  1772	1	 16.4232	 18.5555	 8.19165	N.3
  1773	2	 15.3922	 18.4331	 8.56962	C.1
  1774	2	 15.5077	 19.1197	   7.938	C.1
  1775	2	 16.6843	  17.542	 7.83728	C.1
  1776	2	 16.7998	 18.2285	 7.20565	C.1
  1777	2	   17.02	 18.6615	 9.11548	C.1
  1778	2	 17.1355	  19.348	 8.48386	C.1
  1779	1	 13.2731	-14.0222	 2.10798	N.3
  1780	2	 13.6275	-15.0687	  2.1222	C.1
  1781	2	 13.0041	-14.8668	 1.44828	C.1
  1782	2	 14.2106	-13.4386	 2.07117	C.1
  1783	2	 13.5871	-13.2367	 1.39726	C.1
  1784	2	 12.9164	-13.8623	 3.14144	C.1
  1785	2	  12.293	-13.6604	 2.46753	C.1
  1786	1	 7.23347	0.652271	-2.78016	N.3
  1787	2	 7.54374	0.577115	-3.83798	C.1
  1788	2	 7.91357	 1.29917	-3.36315	C.1
  1789	2	 7.47175	-0.347837	-2.37537	C.1
  1790	2	 7.84158	0.374219	-1.90054	C.1
  1791	2	 6.13016	0.644451	-2.83938	C.1
  1792	2	 6.49999	 1.36651	-2.36455	C.1
  1793	1	 9.40125	 14.1756	 19.3012	N.3
  1794	2	 9.86327	 13.9101	 20.2692	C.1
  1795	2	  9.1747	 13.3371	 19.9843	C.1
  1796	2	 10.2673	 14.2453	 18.6186	C.1
  1797	2	 9.57873	 13.6723	 18.3337	C.1
  1798	2	 9.10602	 15.2308	 19.4432	C.1
  1799	2	 8.41745	 14.6579	 19.1583	C.1
  1800	1	 9.13099	-12.8767	-4.47887	N.3
  1801	2	 9.41257	-13.8143	-3.96647	C.1
  1802	2	 9.72194	-13.7332	 -4.8504	C.1
  1803	2	 9.48343	-12.0933	-3.78388	C.1
  1804	2	  9.7928	-12.0123	 -4.6678	C.1
  1805	2	 8.03293	 -12.844	-4.36038	C.1
  1806	2	  8.3423	 -12.763	 -5.2443	C.1
  1807	1	 6.61927	 9.48277	 13.8794	N.3
  1808	2	 7.42703	 9.95914	 14.4638	C.1
  1809	2	 7.66906	  9.6827	 13.5985	C.1
  1810	2	 5.80298	 10.2261	 13.9242	C.1
  1811	2	 6.04501	 9.94965	  13.059	C.1
  1812	2	 6.26475	 8.67775	 14.5481	C.1
  1813	2	 6.50678	  8.4013	 13.6828	C.1
  1814	1	   11.26	 1.16936	-19.2169	N.3
  1815	2	 10.6046	 1.82142	-19.8219	C.1
  1816	2	 10.9264	 1.05693	-20.2642	C.1
  1817	2	 10.6546	0.970259	-18.3143	C.1
  1818	2	 10.9763	0.205767	-18.7566	C.1
  1819	2	 12.0382	 1.86314	 -18.851	C.1
  1820	2	   12.36	 1.09865	-19.2932	C.1
  1821	1	 17.0727	-4.17272	  5.9611	N.3
  1822	2	 16.0484	-3.83069	 5.72689	C.1
  1823	2	 16.6235	-3.90681	 4.98722	C.1
  1824	2	  16.904	-5.10868	 6.52358	C.1
  1825	2	 17.4791	 -5.1848	 5.78391	C.1
  1826	2	  17.403	-3.46461	 6.74233	C.1
  1827	2	 17.9781	-3.54073	 6.00266	C.1
  1828	1	 1.13659	-6.59555	 4.91244	N.3
  1829	2	 1.66863	-6.51411	 5.87743	C.1
  1830	2	 1.05088	-7.22027	 5.81979	C.1
  1831	2	 1.95735	-6.62759	  4.1734	C.1
  1832	2	  1.3396	-7.33375	 4.11576	C.1
  1833	2	0.710424	-5.58571	 4.77296	C.1
  1834	2	0.0926714	-6.29187	 4.71532	C.1
  1835	1	 19.1329	-9.31939	 13.8533	N.3
  1836	2	 18.7991	-8.84308	 14.7928	C.1
  1837	2	 18.1365	-8.93162	  14.132	C.1
  1838	2	 19.5834	-10.2679	 14.1971	C.1
  1839	2	 18.9208	-10.3564	 13.5364	C.1
  1840	2	 20.0101	 -8.7144	 13.5611	C.1
  1841	2	 19.3474	-8.80294	 12.9003	C.1
  1842	1	-8.27847	 2.96204	-3.61857	N.3
  1843	2	-9.32383	 2.61154	 -3.6912	C.1
  1844	2	-8.79392	 2.16061	-3.05917	C.1
  1845	2	-8.38748	 4.04871	 -3.4509	C.1
  1846	2	-7.85757	 3.59778	-2.81887	C.1
  1847	2	-7.91896	 2.90225	-4.66166	C.1
  1848	2	-7.38905	 2.45133	-4.02963	C.1
  1849	1	0.0401491	 3.88212	 8.31489	N.3
  1850	2	0.853433	 3.78247	 7.57358	C.1
  1851	2	0.133738	 4.32523	 7.30702	C.1
  1852	2	0.568426	 4.21611	 9.22605	C.1
  1853	2	-0.15127	 4.75887	  8.9595	C.1
  1854	2	-0.221869	 2.83364	 8.54486	C.1
  1855	2	-0.941564	  3.3764	 8.27831	C.1
  1856	1	 4.99631	-17.8806	 12.4446	N.3
  1857	2	 4.71441	-18.9355	  12.275	C.1
  1858	2	 4.71729	-18.3938	 11.5067	C.1
  1859	2	 5.96634	-17.9594	 12.9678	C.1
  1860	2	 5.96922	-17.4178	 12.1995	C.1
  1861	2	 4.30386	-17.5595	 13.2435	C.1
  1862	2	 4.30674	-17.0178	 12.4753	C.1
  1863	1	 10.6354	 1.07027	 6.61089	N.3
  1864	2	  9.9952	0.199315	 6.38182	C.1
  1865	2	 9.66814	 1.02676	 6.07855	C.1
  1866	2	 11.6188	0.775319	 6.20241	C.1
  1867	2	 11.2917	 1.60276	 5.89915	C.1
  1868	2	 10.7829	0.995006	 7.70335	C.1
  1869	2	 10.4558	 1.82245	 7.40008	C.1
  1870	1	 9.03948	-1.41676	-0.033975	N.3
  1871	2	 7.97698	-1.32073	0.253738	C.1
  1872	2	 8.13264	-1.44797	-0.66451	C.1
  1873	2	 9.40647	-2.22691	0.621635	C.1
  1874	2	 9.56214	-2.35415	-0.296612	C.1
  1875	2	 9.50149	-0.511768	0.400073	C.1
  1876	2	 9.65715	-0.639011	-0.518174	C.1
  1877	1	-15.0274	 11.9644	-5.70291	N.3
  1878	2	-14.0703	 12.1943	 -6.2049	C.1
  1879	2	-14.1666	 11.3051	-5.91557	C.1
  1880	2	-15.7837	 12.3057	-6.43256	C.1
  1881	2	  -15.88	 11.4165	-6.14323	C.1
  1882	2	-15.0839	 12.7269	-4.90528	C.1
  1883	2	-15.1801	 11.8377	-4.61594	C.1
  1884	1	-5.98779	 2.45571	-1.58265	N.3
  1885	2	-5.22953	 3.22059	 -1.3359	C.1
  1886	2	-5.11908	 2.39373	-0.902655	C.1
  1887	2	 -5.9565	 2.41587	-2.68641	C.1
  1888	2	-5.84605	 1.58901	-2.25317	C.1
  1889	2	-6.94302	 2.97095	-1.37551	C.1
  1890	2	-6.83258	 2.14409	-0.942264	C.1
  1891	1	-7.98072	 17.5203	-4.20388	N.3
  1892	2	-8.96254	 17.9923	-4.01917	C.1
  1893	2	-8.88579	 17.1019	-3.72772	C.1
  1894	2	-7.26911	 18.2287	-3.74281	C.1
  1895	2	-7.19237	 17.3384	-3.45137	C.1
  1896	2	-7.82562	 17.6754	-5.28681	C.1
  1897	2	-7.74887	  16.785	-4.99537	C.1
  1898	1	-9.19738	-16.0088	-8.88363	N.3
  1899	2	-8.47239	-15.8777	-9.70709	C.1
  1900	2	-8.99131	  -15.12	 -9.5068	C.1
  1901	2	-8.57163	-16.3828	-8.05332	C.1
  1902	2	-9.09055	-15.6251	-7.85302	C.1
  1903	2	-9.76975	-16.9026	-9.19093	C.1
  1904	2	-10.2887	-16.1449	-8.99063	C.1
  1905	1	-9.13059	 1.10682	  16.309	N.3
  1906	2	-9.91374	 1.64359	 15.7438	C.1
  1907	2	-9.74546	 1.97512	 16.6072	C.1
  1908	2	-8.26565	 1.12507	 15.6217	C.1
  1909	2	-8.09738	  1.4566	 16.4851	C.1
  1910	2	-9.46479	0.0545123	 16.2665	C.1
  1911	2	-9.29652	0.386044	 17.1299	C.1
  1912	1	 16.1681	 5.43958	 6.49654	N.3
  1913	2	  15.465	 6.28353	 6.37699	C.1
  1914	2	 16.0112	 6.10957	 5.63201	C.1
  1915	2	 15.5116	 4.60536	 6.80304	C.1
  1916	2	 16.0578	 4.43139	 6.05807	C.1
  1917	2	 16.7083	  5.6908	 7.42705	C.1
  1918	2	 17.2546	 5.51684	 6.68208	C.1
  1919	1	 2.56976	 11.2706	 13.8793	N.3
  1920	2	 2.24622	 10.2531	 13.5948	C.1
  1921	2	 3.13092	 10.4707	 13.3633	C.1
  1922	2	   2.342	 11.3152	 14.9595	C.1
  1923	2	 3.22669	 11.5328	 14.7281	C.1
  1924	2	 1.79403	  11.917	 13.4307	C.1
  1925	2	 2.67872	 12.1346	 13.1992	C.1
  1926	1	 1.33113	-17.5387	-8.46094	N.3
  1927	2	 0.63884	-17.2299	-7.65704	C.1
  1928	2	 1.07575	  -18.05	-7.51528	C.1
  1929	2	 1.99733	-16.6641	-8.57045	C.1
  1930	2	 2.43424	-17.4842	-8.42869	C.1
  1931	2	0.701862	 -17.492	-9.36797	C.1
  1932	2	 1.13877	-18.3122	 -9.2262	C.1
  1933	1	-10.7681	 17.8262	 4.17963	N.3
  1934	2	-10.5439	 16.7908	 3.86565	C.1
  1935	2	-9.80166	 17.3662	 3.90505	C.1
  1936	2	-11.3079	 17.6895	 5.13394	C.1
  1937	2	-10.5657	 18.2649	 5.17333	C.1
  1938	2	-11.5657	 18.1352	 3.48023	C.1
  1939	2	-10.8235	 18.7106	 3.51962	C.1
  1940	1	  17.153	 12.4244	 2.84801	N.3
  1941	2	 16.1306	 12.7865	 2.63765	C.1
  1942	2	 16.4085	 12.0516	 2.12164	C.1
  1943	2	 17.1412	 12.2545	 3.93973	C.1
  1944	2	 17.4192	 11.5196	 3.42372	C.1
  1945	2	 17.7704	 13.3344	 2.74066	C.1
  1946	2	 18.0484	 12.5995	 2.22464	C.1
  1947	1	 12.6276	  -2.592	  7.5158	N.3
  1948	2	 11.9429	-3.45882	 7.48924	C.1
  1949	2	 12.7588	-3.57979	 7.03834	C.1
  1950	2	 12.7152	-2.37225	  8.5951	C.1
  1951	2	  13.531	-2.49322	  8.1442	C.1
  1952	2	 12.0009	-1.76347	  7.1394	C.1
  1953	2	 12.8168	-1.88444	  6.6885	C.1
  1954	1	-5.28243	 6.07258	-11.1833	N.3
  1955	2	-4.29895	 5.77517	-10.7769	C.1
  1956	2	 -5.0279	 5.26532	-10.4731	C.1
  1957	2	-5.11977	 6.05547	-12.2761	C.1
  1958	2	-5.84872	 5.54562	-11.9723	C.1
  1959	2	-5.33513	 7.15189	-10.9527	C.1
  1960	2	-6.06409	 6.64204	-10.6489	C.1
  1961	1	0.417983	-13.4722	-9.75044	N.3
  1962	2	 1.47645	-13.4957	-9.43423	C.1
  1963	2	0.854768	-13.7249	-8.76747	C.1
  1964	2	0.407326	-14.1198	-10.6456	C.1
  1965	2	-0.214358	 -14.349	-9.97886	C.1
  1966	2	0.302696	-12.4572	-10.1716	C.1
  1967	2	-0.318987	-12.6864	-9.50485	C.1
  1968	1	 8.63878	 13.9705	-15.2116	N.3
  1969	2	 9.01806	 13.6567	-16.2009	C.1
  1970	2	 9.57502	 14.2485	-15.7284	C.1
  1971	2	 8.43414	 13.0109	-14.7035	C.1
  1972	2	 8.99111	 13.6027	-14.2311	C.1
  1973	2	 7.62868	 14.3562	-15.4392	C.1
  1974	2	 8.18564	  14.948	-14.9667	C.1
  1975	1	 19.9605	 11.6784	 7.54373	N.3
  1976	2	 20.1767	 12.7053	 7.19766	C.1
  1977	2	 20.2763	 12.0346	 6.54659	C.1
  1978	2	 18.9479	 11.7658	 7.97722	C.1
  1979	2	 19.0476	 11.0952	 7.32615	C.1
  1980	2	 20.6074	 11.5701	 8.43291	C.1
  1981	2	 20.7071	 10.8995	 7.78184	C.1
  1982	1	0.214681	 18.8555	-5.37069	N.3
  1983	2	0.0867018	 19.8827	-5.75722	C.1
  1984	2	0.392415	 19.8244	-4.87024	C.1
  1985	2	0.868023	 18.3813	 -6.1251	C.1
  1986	2	 1.17374	  18.323	-5.23812	C.1
  1987	2	-0.769252	 18.3898	-5.56023	C.1
  1988	2	-0.463539	 18.3316	-4.67324	C.1
  1989	1	-0.259167	-3.56743	-16.6143	N.3
  1990	2	-1.11666	-3.72848	-17.2923	C.1
  1991	2	-1.33969	-3.60882	 -16.387	C.1
  1992	2	0.277271	-2.72219	-17.0819	C.1
  1993	2	0.0542504	-2.60252	-16.1766	C.1
  1994	2	0.396424	-4.43113	-16.8267	C.1
  1995	2	0.173404	-4.31146	-15.9214	C.1
  1996	1	  -2.723	 13.9196	 12.7606	N.3
  1997	2	 -2.0658	  13.929	 11.8724	C.1
  1998	2	-2.87852	 13.4694	 11.7636	C.1
  1999	2	-2.81908	 14.9905	 13.0152	C.1
  2000	2	-3.63181	 14.5309	 12.9063	C.1
  2001	2	-2.06502	 13.5286	 13.5575	C.1
  2002	2	-2.87774	  13.069	 13.4487	C.1
  2003	1	-16.4097	 4.91428	 6.60999	N.3
  2004	2	-15.9644	 4.57477	 5.65745	C.1
  2005	2	-16.9038	 4.55961	 5.68749	C.1
  2006	2	-15.9505	 5.90745	 6.76368	C.1
  2007	2	-16.8899	 5.89228	 6.79372	C.1
  2008	2	-15.9051	 4.28336	 7.36377	C.1
  2009	2	-16.8445	 4.26819	 7.39381	C.1
  2010	1	-16.0203	 3.62502	 9.16425	N.3
  2011	2	-16.8375	 3.50383	 9.89797	C.1
  2012	2	-16.4143	 2.70657	 9.63551	C.1
  2013	2	-15.3609	 4.37202	 9.64174	C.1
  2014	2	-14.9377	 3.57476	 9.37928	C.1
  2015	2	-16.4973	 4.19511	 8.34674	C.1
  2016	2	-16.0741	 3.39785	 8.08428	C.1
  2017	1	-7.31909	 13.2911	-6.38214	N.3
  2018	2	-6.27803	 13.2466	-6.74971	C.1
  2019	2	-6.59925	 14.1098	-6.56208	C.1
  2020	2	-7.31407	 12.5947	 -5.5243	C.1
  2021	2	-7.63529	  13.458	-5.33666	C.1
  2022	2	-7.88334	 12.7371	-7.15386	C.1
  2023	2	-8.20456	 13.6004	-6.96623	C.1
  2024	1	-13.9549	-14.6768	 10.0972	N.3
  2025	2	-14.2175	-15.5568	 10.7117	C.1
  2026	2	-13.3372	-15.5475	 10.3821	C.1
  2027	2	-14.2219	-13.8251	 10.7485	C.1
  2028	2	-13.3416	-13.8159	  10.419	C.1
  2029	2	-14.7458	-14.6624	 9.32571	C.1
  2030	2	-13.8655	-14.6531	 8.99614	C.1
  2031	1	 6.12627	 18.4666	-1.54298	N.3
  2032	2	 5.20726	 17.9369	-1.23357	C.1
  2033	2	 5.98963	 17.6776	-0.781667	C.1
  2034	2	 5.85241	 19.5316	-1.43521	C.1
  2035	2	 6.63478	 19.2723	-0.983307	C.1
  2036	2	  6.1456	 18.3204	-2.63801	C.1
  2037	2	 6.92797	  18.061	 -2.1861	C.1
  2038	1	 19.0248	-0.290045	-1.09831	N.3
  2039	2	 19.4907	-1.26255	-0.857236	C.1
  2040	2	 18.5889	-1.30516	-1.11924	C.1
  2041	2	 19.7124	0.140335	-1.84855	C.1
  2042	2	 18.8107	0.0977268	-2.11055	C.1
  2043	2	  19.224	0.315994	-0.196147	C.1
  2044	2	 18.3223	0.273386	-0.458152	C.1
  2045	1	 4.76287	 5.37766	 5.61662	N.3
  2046	2	 3.81981	 5.13166	 6.13722	C.1
  2047	2	 3.72652	 5.37246	 5.23339	C.1
  2048	2	 5.39371	 4.49005	 5.80383	C.1
  2049	2	 5.30042	 4.73086	     4.9	C.1
  2050	2	 5.21502	 6.15006	 6.26455	C.1
  2051	2	 5.12173	 6.39087	 5.36072	C.1
  2052	1	 9.59926	 7.08258	-7.45872	N.3
  2053	2	 9.69155	 6.51852	-8.40435	C.1
  2054	2	 9.07763	 7.23014	-8.42155	C.1
  2055	2	 10.6425	 7.36719	-7.23154	C.1
  2056	2	 10.0285	 8.07882	-7.24873	C.1
  2057	2	 9.38466	  6.2946	-6.71449	C.1
  2058	2	 8.77075	 7.00622	-6.73168	C.1
  2059	1	 14.5448	 3.48437	  7.1125	N.3
  2060	2	  14.481	 2.89102	 8.04242	C.1
  2061	2	 15.2028	 2.67633	 7.47993	C.1
  2062	2	 14.5268	 4.52741	 7.47665	C.1
  2063	2	 15.2487	 4.31272	 6.91417	C.1
  2064	2	  13.544	 3.35673	 6.66216	C.1
  2065	2	 14.2658	 3.14204	 6.09967	C.1
  2066	1	 9.00662	 2.82907	 5.00778	N.3
  2067	2	 8.92553	 2.63231	 6.09204	C.1
  2068	2	 8.97453	 3.54008	 5.85297	C.1
  2069	2	 8.14698	 2.27772	 4.58602	C.1
  2070	2	 8.19599	 3.18549	 4.34695	C.1
  2071	2	 9.87385	 2.21554	  4.7039	C.1
  2072	2	 9.92285	 3.12331	 4.46483	C.1
  2073	1	-0.0921706	-1.40284	-14.1315	N.3
  2074	2	 0.86553	-1.71095	-13.6746	C.1
  2075	2	0.697404	-0.786156	-13.6655	C.1
  2076	2	-0.836801	-2.02118	-13.5985	C.1
  2077	2	-1.00493	-1.09639	-13.5894	C.1
  2078	2	-0.053051	-1.86357	 -15.135	C.1
  2079	2	-0.221178	-0.938776	-15.1259	C.1
  2080	1	 -12.139	 17.3164	-12.1608	N.3
  2081	2	-12.3779	 17.2945	-11.0822	C.1
  2082	2	-11.4748	 17.1439	-11.2948	C.1
  2083	2	 -12.543	 18.2909	-12.4893	C.1
  2084	2	-11.6398	 18.1403	-12.7019	C.1
  2085	2	 -12.851	 16.5896	-12.5919	C.1
  2086	2	-11.9478	  16.439	-12.8046	C.1
  2087	1	-19.5909	 1.17129	 9.41419	N.3
  2088	2	-18.6882	 1.32779	 8.79658	C.1
  2089	2	-18.8678	0.433245	 9.02268	C.1
  2090	2	 -20.384	 1.67812	 8.83533	C.1
  2091	2	-20.5636	 0.78357	 9.06143	C.1
  2092	2	-19.4312	 1.84979	 10.2715	C.1
  2093	2	-19.6108	0.955242	 10.4976	C.1
  2094	1	 9.12894	-15.3932	 14.3014	N.3
  2095	2	 10.2286	-15.2924	 14.3404	C.1
  2096	2	 9.89426	-15.7345	 13.5812	C.1
  2097	2	 8.77524	 -14.355	 14.4345	C.1
  2098	2	 8.44091	-14.7971	 13.6753	C.1
  2099	2	 8.88449	-15.8692	 15.2681	C.1
  2100	2	 8.55017	-16.3113	  14.509	C.1
  2101	1	 9.79831	-16.7937	-9.04593	N.3
  2102	2	 9.86215	-16.1107	-9.91214	C.1
  2103	2	   10.59	-16.0727	-9.31847	C.1
  2104	2	 9.62443	-17.7795	-9.51382	C.1
  2105	2	 10.3522	-17.7414	-8.92016	C.1
  2106	2	 8.81662	 -16.548	-8.60234	C.1
  2107	2	 9.54444	  -16.51	-8.00867	C.1
  2108	1	-12.2922	-18.6806	 10.1781	N.3
  2109	2	-11.8409	-19.1899	 9.30746	C.1
  2110	2	-11.4822	-19.4313	 10.1421	C.1
  2111	2	-13.3721	-18.8796	 10.0552	C.1
  2112	2	-13.0134	-19.1211	 10.8899	C.1
  2113	2	-12.2016	-17.6102	 9.91949	C.1
  2114	2	-11.8429	-17.8517	 10.7541	C.1
  2115	1	-19.9177	 10.2794	0.777403	N.3
  2116	2	 -19.902	 9.88456	 1.80928	C.1
  2117	2	 -20.419	 9.38986	 1.19973	C.1
  2118	2	-18.8458	 10.3651	0.523405	C.1
  2119	2	-19.3628	 9.87042	-0.0861467	C.1
  2120	2	-20.2298	 11.3305	0.913847	C.1
  2121	2	-20.7468	 10.8358	0.304295	C.1
  2122	1	-18.9222	-13.3441	  12.617	N.3
  2123	2	-18.4417	-12.3651	 12.7948	C.1
  2124	2	-17.9023	-13.1137	 12.9742	C.1
  2125	2	-19.2825	-13.2632	 11.5756	C.1
  2126	2	-18.7431	-14.0118	 11.7551	C.1
  2127	2	-19.8515	 -13.281	 13.2114	C.1
  2128	2	-19.3121	-14.0296	 13.3909	C.1
  2129	1	 8.59773	 13.7085	 16.5646	N.3
  2130	2	 9.18472	 13.7197	 17.5007	C.1
  2131	2	 9.65605	 13.4414	 16.7365	C.1
  2132	2	 8.18281	 14.7313	 16.5144	C.1
  2133	2	 8.65414	 14.4531	 15.7502	C.1
  2134	2	 7.71865	 13.0919	 16.8251	C.1
  2135	2	 8.18999	 12.8136	 16.0609	C.1
  2136	1	 8.69219	0.834789	-6.24203	N.3
  2137	2	 8.78426	0.807781	 -7.3428	C.1
  2138	2	 7.99728	 1.20545	-7.01702	C.1
  2139	2	 9.63156	 1.32049	-5.92183	C.1
  2140	2	 8.84459	 1.71816	-5.59605	C.1
  2141	2	 8.84121	-0.220408	-5.95013	C.1
  2142	2	 8.05424	0.177262	-5.62435	C.1
  2143	1	  19.987	 2.76713	 14.3406	N.3
  2144	2	 19.5341	 1.82842	 14.7075	C.1
  2145	2	  20.355	 2.05786	 15.1038	C.1
  2146	2	 19.1775	 3.50721	 14.4742	C.1
  2147	2	 19.9984	 3.73666	 14.8705	C.1
  2148	2	  20.018	  2.6216	 13.2458	C.1
  2149	2	 20.8389	 2.85105	 13.6421	C.1
  2150	1	  11.029	 10.1549	-17.1169	N.3
  2151	2	 11.6902	 9.59129	-17.7995	C.1
  2152	2	 12.0925	 9.87915	-17.0002	C.1
  2153	2	 10.1625	 9.48093	-16.9908	C.1
  2154	2	 10.5648	 9.76879	-16.1915	C.1
  2155	2	 10.6306	 10.9608	-17.7594	C.1
  2156	2	 11.0329	 11.2487	-16.9601	C.1
  2157	1	 17.1049	 17.9771	 16.0887	N.3
  2158	2	 17.4353	  18.946	 15.6729	C.1
  2159	2	 18.0453	 18.2382	 15.5706	C.1
  2160	2	 16.1198	 17.8209	 15.6133	C.1
  2161	2	 16.7298	 17.1131	  15.511	C.1
  2162	2	 16.8446	  18.226	 17.1333	C.1
  2163	2	 17.4546	 17.5182	  17.031	C.1
  2164	1	-4.91423	-19.8875	-13.5117	N.3
  2165	2	-4.51183	-20.2128	 -14.488	C.1
  2166	2	-4.15397	-19.4096	-14.1555	C.1
  2167	2	-4.76108	-20.7724	-12.8679	C.1
  2168	2	-4.40323	-19.9693	-12.5354	C.1
  2169	2	-6.00658	-19.8821	-13.6778	C.1
  2170	2	-5.64872	 -19.079	-13.3453	C.1
  2171	1	 8.70135	-16.0641	 16.7403	N.3
  2172	2	  7.6534	 -16.088	 17.0898	C.1
  2173	2	 7.76366	-16.0869	 16.1563	C.1
  2174	2	 9.16282	-16.9188	 17.2671	C.1
  2175	2	 9.27308	-16.9177	 16.3336	C.1
  2176	2	 9.12244	-15.1873	 17.2644	C.1
  2177	2	 9.23271	-15.1861	 16.3309	C.1
  2178	1	 15.9898	 19.9149	 17.8761	N.3
  2179	2	 16.7131	 19.1601	 18.2338	C.1
  2180	2	 16.2488	 19.6206	 18.9091	C.1
  2181	2	  15.355	  19.344	 17.1747	C.1
  2182	2	 14.8907	 19.8044	   17.85	C.1
  2183	2	 16.5976	   20.55	 17.2068	C.1
  2184	2	 16.1333	 21.0105	 17.8821	C.1
  2185	1	  11.298	-14.8205	 14.8455	N.3
  2186	2	 11.4774	-14.8379	 15.9357	C.1
  2187	2	 10.8362	-15.4516	 15.6261	C.1
  2188	2	 12.3106	-14.9444	 14.4209	C.1
  2189	2	 11.6693	 -15.558	 14.1113	C.1
  2190	2	  11.068	-13.7586	 14.6443	C.1
  2191	2	 10.4268	-14.3723	 14.3347	C.1
  2192	1	 7.91823	-2.57686	-3.16151	N.3
  2193	2	 8.05393	-2.12404	-2.16279	C.1
  2194	2	 8.02363	-3.06347	 -2.1751	C.1
  2195	2	 8.73234	-2.12505	-3.75644	C.1
  2196	2	 8.70204	-3.06448	-3.76875	C.1
  2197	2	 7.01388	-2.07235	-3.54684	C.1
  2198	2	 6.98358	-3.01178	-3.55914	C.1
  2199	1	 7.75122	 3.86465	 -2.9377	N.3
  2200	2	 7.48774	 4.91189	-3.17176	C.1
  2201	2	    6.79	 4.39489	-2.81193	C.1
  2202	2	 8.64193	 3.96659	-2.29188	C.1
  2203	2	  7.9442	 3.44959	-1.93205	C.1
  2204	2	 8.17058	 3.49099	-3.88921	C.1
  2205	2	 7.47285	 2.97399	-3.52938	C.1
  2206	1	-8.04742	 15.5391	 11.6643	N.3
  2207	2	-8.28725	 16.3871	 10.9978	C.1
  2208	2	-8.85691	 16.2875	 11.7389	C.1
  2209	2	-6.98249	 15.7034	 11.9089	C.1
  2210	2	-7.55216	 15.6037	 12.6499	C.1
  2211	2	-8.01802	 14.6763	 10.9747	C.1
  2212	2	-8.58769	 14.5766	 11.7158	C.1
  2213	1	 8.81108	 19.2595	-0.386539	N.3
  2214	2	  7.7231	 19.4469	-0.432251	C.1
  2215	2	 7.97334	 18.6451	-0.0103338	C.1
  2216	2	 9.20646	 20.1796	0.0803975	C.1
  2217	2	 9.45669	 19.3777	0.502315	C.1
  2218	2	 9.12832	 19.3548	-1.44064	C.1
  2219	2	 9.37855	  18.553	-1.01872	C.1
  2220	1	 11.3441	-15.8104	-10.1778	N.3
  2221	2	 11.1034	-16.6737	-9.53154	C.1
  2222	2	 10.4462	-16.0024	-9.56304	C.1
  2223	2	 11.5827	-16.2805	-11.1488	C.1
  2224	2	 10.9255	-15.6091	-11.1803	C.1
  2225	2	  12.332	 -15.484	-9.80567	C.1
  2226	2	 11.6748	-14.8126	-9.83716	C.1
  2227	1	-7.71722	 10.7703	-17.3065	N.3
  2228	2	-7.16721	 9.90467	-17.7177	C.1
  2229	2	-7.24462	  10.641	-18.2968	C.1
  2230	2	-7.19335	 10.9737	-16.3551	C.1
  2231	2	-7.27075	   11.71	-16.9343	C.1
  2232	2	-8.67498	 10.3281	-16.9778	C.1
  2233	2	-8.75239	 11.0644	 -17.557	C.1
  2234	1	-2.40408	 12.2156	 19.6704	N.3
  2235	2	-2.76854	  12.599	 18.7003	C.1
  2236	2	-1.84557	 12.6983	 18.8482	C.1
  2237	2	-2.77313	 11.1742	 19.6852	C.1
  2238	2	-1.85016	 11.2735	  19.833	C.1
  2239	2	-3.05502	 12.7246	 20.4039	C.1
  2240	2	-2.13205	 12.8239	 20.5518	C.1
  2241	1	-8.93326	-12.6854	  -9.399	N.3
  2242	2	-8.78402	-13.2688	 -8.4726	C.1
  2243	2	-8.09567	-13.3448	-9.10823	C.1
  2244	2	-9.11766	-11.6618	-9.02593	C.1
  2245	2	-8.42932	-11.7378	-9.66155	C.1
  2246	2	-9.93061	-13.0116	-9.74504	C.1
  2247	2	-9.24227	-13.0875	-10.3807	C.1
  2248	1	 1.92431	-11.1552	-18.7046	N.3
  2249	2	 1.61402	 -11.966	-18.0209	C.1
  2250	2	  1.5913	-11.1015	-17.6524	C.1
  2251	2	 1.27678	-11.3071	-19.5869	C.1
  2252	2	 1.25406	-10.4427	-19.2183	C.1
  2253	2	 2.91621	-11.4892	-19.0587	C.1
  2254	2	 2.89349	-10.6248	-18.6901	C.1
  2255	1	 16.9071	 9.44002	 -13.672	N.3
  2256	2	 16.2186	 9.12406	-14.4765	C.1
  2257	2	 17.1326	 9.07857	-14.6915	C.1
  2258	2	 16.5947	 8.81838	-12.8136	C.1
  2259	2	 17.5087	 8.77289	-13.0287	C.1
  2260	2	 16.5369	 10.4458	-13.4034	C.1
  2261	2	 17.4509	 10.4004	-13.6185	C.1
  2262	1	 1.44063	-10.2347	-13.1561	N.3
  2263	2	 1.51356	-10.7995	-12.2092	C.1
  2264	2	 1.34687	-9.87928	 -12.114	C.1
  2265	2	0.676953	-10.7942	-13.7258	C.1
  2266	2	0.510257	-9.87404	-13.6306	C.1
  2267	2	 2.38141	-10.4906	 -13.676	C.1
  2268	2	 2.21471	-9.57042	-13.5808	C.1
  2269	1	-19.8649	-8.66152	 17.3989	N.3
  2270	2	-20.4228	-7.70797	 17.3788	C.1
  2271	2	-20.2674	-8.09811	 16.5378	C.1
  2272	2	-20.4485	-9.28081	 18.1037	C.1
  2273	2	-20.2931	-9.67095	 17.2627	C.1
  2274	2	-18.9564	-8.41058	 17.9756	C.1
  2275	2	-18.8011	-8.80071	 17.1347	C.1
  2276	1	-8.19477	0.585907	-4.37256	N.3
  2277	2	-7.63133	 1.27578	-3.71871	C.1
  2278	2	-7.61154	 1.48711	-4.63443	C.1
  2279	2	-9.20063	0.569726	-3.91558	C.1
  2280	2	-9.18083	0.781059	 -4.8313	C.1
  2281	2	-7.78203	-0.404783	-4.10981	C.1
  2282	2	-7.76223	-0.19345	-5.02554	C.1
  2283	1	 9.23765	-10.9954	-5.90723	N.3
  2284	2	 8.91398	-11.9592	-6.33991	C.1
  2285	2	 9.17077	-11.9927	-5.43629	C.1
  2286	2	 8.39118	-10.3213	-6.13061	C.1
  2287	2	 8.64796	-10.3548	-5.22699	C.1
  2288	2	 10.0226	-10.6555	-6.60661	C.1
  2289	2	 10.2794	 -10.689	-5.70298	C.1
  2290	1	-13.3992	-9.74837	-3.68877	N.3
  2291	2	-14.4303	-9.99326	-3.37608	C.1
  2292	2	 -14.312	-9.12657	-3.72025	C.1
  2293	2	-13.1443	-10.5688	 -4.3836	C.1
  2294	2	-13.0261	-9.70213	-4.72777	C.1
  2295	2	-12.8003	-9.98308	-2.79037	C.1
  2296	2	 -12.682	-9.11638	-3.13455	C.1
  2297	1	-5.47532	 4.28637	 2.16535	N.3
  2298	2	 -4.4948	 4.17493	  2.6624	C.1
  2299	2	-4.45762	 4.35364	  1.7403	C.1
  2300	2	-5.98063	 5.05804	 2.77365	C.1
  2301	2	-5.94345	 5.23675	 1.85155	C.1
  2302	2	-6.00629	 3.35806	 2.44315	C.1
  2303	2	-5.96912	 3.53677	 1.52104	C.1
  2304	1	-15.4208	-0.563584	 2.61186	N.3
  2305	2	-14.7958	-1.30809	 2.08656	C.1
  2306	2	-14.4372	-0.98192	 2.89195	C.1
  2307	2	-16.3968	-1.07325	 2.70422	C.1
  2308	2	-16.0382	-0.747072	 3.50961	C.1
  2309	2	-15.6077	0.201326	 1.83672	C.1
  2310	2	-15.2491	  0.5275	  2.6421	C.1
  2311	1	-15.3405	-4.29495	 -7.5268	N.3
  2312	2	-14.6005	-3.89148	-6.81237	C.1
  2313	2	-15.1376	-4.58813	-6.48098	C.1
  2314	2	-14.7261	-4.55364	 -8.4079	C.1
  2315	2	-15.2631	-5.25029	-8.07651	C.1
  2316	2	-15.8895	-3.39474	-7.85721	C.1
  2317	2	-16.4265	-4.09139	-7.52582	C.1
  2318	1	  0.2778	 9.17511	 -16.891	N.3
  2319	2	-0.144762	 8.15983	-16.9984	C.1
  2320	2	0.230386	 8.52162	-17.7807	C.1
  2321	2	0.975244	 9.06974	-16.0405	C.1
  2322	2	 1.35039	 9.43153	-16.8228	C.1
  2323	2	-0.559805	 9.75309	-16.4606	C.1
  2324	2	-0.184656	 10.1149	-17.2429	C.1
  2325	1	  18.823	-13.8503	-6.61119	N.3
  2326	2	  19.805	-13.7012	-6.12712	C.1
  2327	2	 19.7694	-13.4722	 -7.0381	C.1
  2328	2	 18.1315	-13.2882	 -5.9579	C.1
  2329	2	 18.0959	-13.0592	-6.86888	C.1
  2330	2	 18.5859	-14.9048	-6.38207	C.1
  2331	2	 18.5503	-14.6758	-7.29305	C.1
  2332	1	-8.44491	 5.91113	-17.3616	N.3
  2333	2	-9.01536	 6.05193	-16.4258	C.1
  2334	2	-9.52045	 5.75616	-17.1614	C.1
  2335	2	-7.62129	 5.24057	-17.0569	C.1
  2336	2	-8.12638	  4.9448	-17.7924	C.1
  2337	2	-7.94044	 6.88455	-17.4988	C.1
  2338	2	-8.44553	 6.58878	-18.2343	C.1
  2339	1	 5.90323	-12.3221	 5.24025	N.3
  2340	2	 6.15344	-11.4304	 5.84289	C.1
  2341	2	 5.33473	-11.8402	   6.056	C.1
  2342	2	 6.79472	-12.9643	 5.35721	C.1
  2343	2	 5.97601	-13.3741	 5.57031	C.1
  2344	2	  5.9896	 -11.957	 4.20098	C.1
  2345	2	 5.17089	-12.3667	 4.41409	C.1
  2346	1	 18.6108	-16.8617	-12.1519	N.3
  2347	2	 18.2191	-15.9174	-11.7327	C.1
  2348	2	 17.9145	-16.6995	-11.3095	C.1
  2349	2	 19.7054	-16.7122	-12.1317	C.1
  2350	2	 19.4007	-17.4943	-11.7085	C.1
  2351	2	 18.3648	-16.7823	-13.2262	C.1
  2352	2	 18.0602	-17.5644	 -12.803	C.1
  2353	1	-9.13702	 13.8753	 8.19375	N.3
  2354	2	-8.22494	  13.257	 8.27549	C.1
  2355	2	-8.08407	 14.1416	  7.9906	C.1
  2356	2	-9.60305	  13.771	 9.19014	C.1
  2357	2	-9.46218	 14.6556	 8.90525	C.1
  2358	2	-9.79438	  13.271	 7.54295	C.1
  2359	2	-9.65351	 14.1556	 7.25806	C.1
  2360	1	-0.968557	-10.4342	 4.60811	N.3
  2361	2	-0.012478	 -10.634	 5.12473	C.1
  2362	2	-0.576128	-10.0149	  5.5521	C.1
  2363	2	-1.39717	-11.4433	 4.47081	C.1
  2364	2	-1.96082	-10.8242	 4.89818	C.1
  2365	2	-0.650546	-10.1539	 3.58774	C.1
  2366	2	 -1.2142	-9.53479	 4.01512	C.1
  2367	1	-1.08246	-12.7734	 16.6534	N.3
  2368	2	-0.144196	-12.2417	 16.4128	C.1
  2369	2	-0.0382211	 -13.041	 16.8959	C.1
  2370	2	-1.57165	-12.8808	 15.6685	C.1
  2371	2	-1.46568	-13.6801	 16.1517	C.1
  2372	2	 -1.6905	-11.9985	 17.1542	C.1
  2373	2	-1.58452	-12.7979	 17.6374	C.1
  2374	1	 14.7663	-9.71502	 14.9071	N.3
  2375	2	 14.4937	-10.1582	 15.8819	C.1
  2376	2	 15.4141	 -10.146	 15.6916	C.1
  2377	2	  14.279	-8.72376	 14.9351	C.1
  2378	2	 15.1994	-8.71156	 14.7449	C.1
  2379	2	 14.1455	-10.2814	 14.1897	C.1
  2380	2	  15.066	-10.2692	 13.9994	C.1
  2381	1	-10.0428	-1.99339	-9.59143	N.3
  2382	2	-10.6125	 -2.5452	-10.3608	C.1
  2383	2	-11.0044	-2.53099	 -9.5065	C.1
  2384	2	-9.88824	-1.00201	-10.0542	C.1
  2385	2	-10.2802	-0.987795	 -9.1999	C.1
  2386	2	-9.03982	-2.45428	-9.64075	C.1
  2387	2	-9.43176	-2.44006	-8.78647	C.1
  2388	1	  7.2911	-5.04244	-3.02189	N.3
  2389	2	 7.10601	-6.05843	-2.62894	C.1
  2390	2	 7.78386	-5.57732	-2.19003	C.1
  2391	2	 6.29027	-4.57504	-2.99511	C.1
  2392	2	 6.96813	-4.09393	 -2.5562	C.1
  2393	2	 7.46025	-5.21552	-4.09999	C.1
  2394	2	 8.13811	-4.73441	-3.66108	C.1
  2395	1	 -1.3918	-8.54919	-1.22491	N.3
  2396	2	-2.25927	-8.10566	-1.74614	C.1
  2397	2	-1.45103	-8.08443	-2.22561	C.1
  2398	2	-1.74998	-9.55817	-0.951922	C.1
  2399	2	-0.941734	-9.53695	-1.43139	C.1
  2400	2	-1.37852	-8.01558	-0.257475	C.1
  2401	2	-0.57028	-7.99435	-0.736945	C.1
  2402	1	-13.9572	-17.7353	-3.49954	N.3
  2403	2	-13.9417	-18.6679	-2.90724	C.1
  2404	2	-13.8504	-18.7824	-3.83577	C.1
  2405	2	-13.1732	  -17.12	-3.02253	C.1
  2406	2	-13.0819	-17.2344	-3.95107	C.1
  2407	2	-14.8937	-17.2462	-3.17605	C.1
  2408	2	-14.8025	-17.3607	-4.10459	C.1
  2409	1	 8.26368	 -6.5475	 16.4835	N.3
  2410	2	 7.60243	-5.69606	 16.7258	C.1
  2411	2	 8.52125	-5.49801	  16.714	C.1
  2412	2	 7.85172	-6.92382	 15.5298	C.1
  2413	2	 8.77054	-6.72577	  15.518	C.1
  2414	2	 7.95865	-7.31968	 17.2126	C.1
  2415	2	 8.87747	-7.12163	 17.2008	C.1
  2416	1	 15.1683	-18.7453	-0.72968	N.3
  2417	2	 16.0222	-18.0557	-0.856799	C.1
  2418	2	 15.2867	-17.8889	-1.41783	C.1
  2419	2	 14.9561	-18.6876	0.353143	C.1
  2420	2	 14.2205	-18.5209	-0.207887	C.1
  2421	2	 15.6298	-19.7427	-0.843839	C.1
  2422	2	 14.8943	-19.5759	-1.40487	C.1
  2423	1	0.960214	 16.3241	-15.7539	N.3
  2424	2	0.929931	 17.4096	 -15.958	C.1
  2425	2	0.532776	 16.8679	-16.6156	C.1
  2426	2	0.513747	 16.2441	-14.7463	C.1
  2427	2	0.116592	 15.7023	-15.4039	C.1
  2428	2	 2.03269	 16.1314	-15.5709	C.1
  2429	2	 1.63554	 15.5896	-16.2284	C.1
  2430	1	-17.9836	 2.47173	-2.62452	N.3
  2431	2	-18.6494	 1.63329	-2.89779	C.1
  2432	2	-17.8386	 1.38434	 -2.4924	C.1
  2433	2	-18.6346	 3.12221	-2.01299	C.1
  2434	2	-17.8238	 2.87325	 -1.6076	C.1
  2435	2	-17.8829	 3.03313	-3.57086	C.1
  2436	2	-17.0722	 2.78417	-3.16547	C.1
  2437	1	-4.67865	 10.8645	-6.87764	N.3
  2438	2	-5.34016	   10.34	-6.16472	C.1
  2439	2	-5.72462	 11.0818	-6.59547	C.1
  2440	2	-4.33862	 10.0553	-7.54885	C.1
  2441	2	-4.72309	 10.7971	-7.97961	C.1
  2442	2	-3.78048	 11.0854	-6.27321	C.1
  2443	2	-4.16494	 11.8272	-6.70396	C.1
  2444	1	-0.033179	 10.0356	-12.1378	N.3
  2445	2	-0.256639	 9.90188	-13.2117	C.1
  2446	2	0.429489	 9.35471	-12.8749	C.1
  2447	2	-1.01885	 9.90343	-11.6563	C.1
  2448	2	-0.33272	 9.35626	-11.3195	C.1
  2449	2	0.146759	 11.1223	-12.0507	C.1
  2450	2	0.832887	 10.5751	-11.7139	C.1
  2451	1	 9.22479	0.611188	 11.4987	N.3
  2452	2	 8.56048	 1.47762	 11.3287	C.1
  2453	2	 8.61195	 1.18193	 12.2195	C.1
  2454	2	 10.1831	0.936854	 11.0555	C.1
  2455	2	 10.2346	0.641171	 11.9463	C.1
  2456	2	 8.85359	-0.137384	 10.7757	C.1
  2457	2	 8.90506	-0.433067	 11.6665	C.1
  2458	1	-16.8024	 1.92987	 15.1699	N.3
  2459	2	-17.4501	 2.44674	  14.439	C.1
  2460	2	-16.7493	 2.96595	 14.7896	C.1
  2461	2	-16.4876	 1.01937	 14.6288	C.1
  2462	2	-15.7868	 1.53859	 14.9794	C.1
  2463	2	-17.5206	 1.54468	  15.916	C.1
  2464	2	-16.8198	  2.0639	 16.2665	C.1
  2465	1	-18.8141	 15.6692	-13.3678	N.3
  2466	2	-17.9456	 16.2573	-13.7151	C.1
  2467	2	-18.7133	 16.3218	-14.2537	C.1
  2468	2	-18.9438	 16.0033	-12.3226	C.1
  2469	2	-19.7115	 16.0678	-12.8611	C.1
  2470	2	-18.4014	 14.6501	-13.2578	C.1
  2471	2	-19.1692	 14.7146	-13.7963	C.1
  2472	1	-4.87785	 14.0901	 9.37581	N.3
  2473	2	 -5.8191	 14.6571	 9.25996	C.1
  2474	2	-5.47265	  14.291	 8.46655	C.1
  2475	2	-5.12061	 13.3562	 10.1653	C.1
  2476	2	-4.77416	 12.9901	 9.37191	C.1
  2477	2	-4.21351	 14.8062	 9.89227	C.1
  2478	2	-3.86706	   14.44	 9.09886	C.1
  2479	1	-8.22717	-18.6213	 19.1752	N.3
  2480	2	-8.48137	-18.8667	 18.1283	C.1
  2481	2	-9.18776	-18.9541	 18.7423	C.1
  2482	2	-7.79335	 -17.608	  19.099	C.1
  2483	2	-8.49974	-17.6954	  19.713	C.1
  2484	2	-7.34721	-19.2582	 19.3774	C.1
  2485	2	 -8.0536	-19.3456	 19.9914	C.1
  2486	1	 19.1761	 4.51333	 19.4781	N.3
  2487	2	 19.5639	 5.37102	 18.8994	C.1
  2488	2	  19.415	 5.53911	 19.8122	C.1
  2489	2	 19.9048	 3.71172	 19.2606	C.1
  2490	2	 19.7559	 3.87981	 20.1734	C.1
  2491	2	 18.2831	  4.2051	 18.9051	C.1
  2492	2	 18.1341	 4.37319	 19.8179	C.1
  2493	1	-12.4451	-12.2408	 4.68095	N.3
  2494	2	 -11.468	-12.7414	 4.80556	C.1
  2495	2	 -11.535	-11.8913	 5.20102	C.1
  2496	2	-13.1634	-12.9918	 5.05641	C.1
  2497	2	-13.2304	-12.1417	 5.45187	C.1
  2498	2	-12.6034	-12.2645	 3.58767	C.1
  2499	2	-12.6705	-11.4143	 3.98313	C.1
  2500	1	-19.1245	 5.20166	 14.2807	N.3
  2501	2	-19.2504	 6.20286	 14.7308	C.1
  2502	2	 -20.043	   5.708	 14.6282	C.1
  2503	2	-18.3565	 4.73161	  14.921	C.1
  2504	2	 -19.149	 4.23674	 14.8185	C.1
  2505	2	-18.5776	  5.4128	 13.3441	C.1
  2506	2	-19.3702	 4.91794	 13.2415	C.1
  2507	1	 7.78987	     -14	0.629257	N.3
  2508	2	 6.92838	-14.2444	 1.27658	C.1
  2509	2	 7.20892	-14.9368	0.706076	C.1
  2510	2	 8.55156	 -13.644	 1.34617	C.1
  2511	2	  8.8321	-14.3364	0.775668	C.1
  2512	2	 7.46886	-13.0731	0.120776	C.1
  2513	2	 7.74941	-13.7655	-0.449725	C.1
  2514	1	 2.39217	-17.5967	-13.2573	N.3
  2515	2	  1.8912	-17.0051	-12.4699	C.1
  2516	2	 2.83054	-17.0035	-12.4346	C.1
  2517	2	 1.95621	-17.1961	-14.1901	C.1
  2518	2	 2.89554	-17.1944	-14.1548	C.1
  2519	2	  1.9201	-18.5914	-13.1647	C.1
  2520	2	 2.85943	-18.5898	-13.1294	C.1
  2521	1	 4.12974	 7.13966	-19.0563	N.3
  2522	2	 3.04943	 6.90775	-19.0494	C.1
  2523	2	 3.26214	 7.81935	-19.1351	C.1
  2524	2	 4.52292	 6.48804	-19.8573	C.1
  2525	2	 4.73564	 7.39964	-19.9429	C.1
  2526	2	 4.49779	  6.6558	-18.1336	C.1
  2527	2	  4.7105	  7.5674	-18.2192	C.1
  2528	1	 2.33763	 18.6991	-15.7156	N.3
  2529	2	 2.70594	  19.735	-15.6048	C.1
  2530	2	  3.3424	  19.115	-15.9117	C.1
  2531	2	 1.44664	 18.8153	-16.3587	C.1
  2532	2	 2.08309	 18.1953	-16.6655	C.1
  2533	2	 1.90564	 18.4771	-14.7232	C.1
  2534	2	 2.54209	 17.8571	  -15.03	C.1
  2535	1	  19.067	 17.4185	-2.54818	N.3
  2536	2	 18.8603	 16.3984	 -2.9192	C.1
  2537	2	 19.7399	  16.702	 -3.0529	C.1
  2538	2	 18.7401	 17.3748	-1.49363	C.1
  2539	2	 19.6196	 17.6783	-1.62733	C.1
  2540	2	 18.2813	 18.0269	-3.03116	C.1
  2541	2	 19.1608	 18.3305	-3.16486	C.1
  2542	1	-14.4252	-10.9754	-9.63445	N.3
  2543	2	-14.7664	-11.5829	-10.4921	C.1
  2544	2	-15.4104	-10.9991	-10.1343	C.1
  2545	2	-13.5106	-10.4883	-10.0179	C.1
  2546	2	-14.1546	-9.90447	-9.66007	C.1
  2547	2	-14.0327	-11.7309	-8.93011	C.1
  2548	2	-14.6767	-11.1471	 -8.5723	C.1
  2549	1	 4.54554	 6.33613	-13.7113	N.3
  2550	2	 5.40173	 5.65387	-13.5617	C.1
  2551	2	 4.55521	 5.24664	-13.5273	C.1
  2552	2	 4.78684	 6.83892	-14.6651	C.1
  2553	2	 3.94033	 6.43169	-14.6308	C.1
  2554	2	 4.71783	 7.12643	-12.9586	C.1
  2555	2	 3.87131	 6.71921	-12.9242	C.1
  2556	1	-9.95307	-7.64643	-11.3041	N.3
  2557	2	-9.02781	 -7.8201	-10.7257	C.1
  2558	2	-9.78293	-8.29106	 -10.423	C.1
  2559	2	 -9.6468	 -7.8668	-12.3426	C.1
  2560	2	-10.4019	-8.33775	  -12.04	C.1
  2561	2	-10.0519	-6.54595	-11.2981	C.1
  2562	2	 -10.807	-7.01691	-10.9954	C.1
  2563	1	-10.2231	 2.24597	 6.04802	N.3
  2564	2	-10.6638	 3.25115	 6.17584	C.1
  2565	2	-10.5261	 2.98531	 5.28479	C.1
  2566	2	-10.8999	 1.59724	 6.63276	C.1
  2567	2	-10.7622	  1.3314	 5.74172	C.1
  2568	2	-9.31227	 2.28829	 6.67201	C.1
  2569	2	-9.17453	 2.02246	 5.78097	C.1
  2570	1	-4.47544	-14.8678	-13.3137	N.3
  2571	2	-4.18312	-14.2599	-14.1889	C.1
  2572	2	-3.54725	-14.8947	-13.9125	C.1
  2573	2	-5.45555	-15.2828	-13.6103	C.1
  2574	2	-4.81968	-15.9175	 -13.334	C.1
  2575	2	-4.74147	-14.1085	-12.5563	C.1
  2576	2	-4.10559	-14.7432	  -12.28	C.1
  2577	1	-11.2877	 8.29218	 14.8235	N.3
  2578	2	 -10.611	  8.8789	 15.4706	C.1
  2579	2	-10.2215	 8.12721	 15.0621	C.1
  2580	2	-11.6909	 9.04944	 14.1272	C.1
  2581	2	-11.3014	 8.29775	 13.7187	C.1
  2582	2	-12.1455	 8.07573	 15.4855	C.1
  2583	2	 -11.756	 7.32404	  15.077	C.1
  2584	1	-16.0123	-14.1274	 8.71405	N.3
  2585	2	-16.5333	-13.1715	 8.52523	C.1
  2586	2	-15.6103	-13.0985	 8.68772	C.1
  2587	2	-16.2883	-14.7427	 7.83874	C.1
  2588	2	-15.3653	-14.6697	 8.00123	C.1
  2589	2	-16.5999	-14.5775	 9.53446	C.1
  2590	2	-15.6769	-14.5046	 9.69695	C.1
  2591	1	 16.7509	 2.58203	 14.3164	N.3
  2592	2	 15.9341	 2.28066	 14.9968	C.1
  2593	2	 16.2245	 1.61419	  14.401	C.1
  2594	2	 17.5247	 2.96624	 15.0053	C.1
  2595	2	 17.8151	 2.29977	 14.4094	C.1
  2596	2	 16.3583	  3.4989	  13.841	C.1
  2597	2	 16.6487	 2.83243	 13.2451	C.1
  2598	1	 7.04519	-12.3637	 7.91832	N.3
  2599	2	 8.05975	-12.7999	 7.88166	C.1
  2600	2	 7.48129	-13.1857	 8.51423	C.1
  2601	2	 6.70455	 -12.428	 6.86919	C.1
  2602	2	 6.12609	-12.8138	 7.50176	C.1
  2603	2	 7.23898	-11.2846	 8.05525	C.1
  2604	2	 6.66052	-11.6704	 8.68783	C.1
  2605	1	-18.1131	 6.25906	 19.7491	N.3
  2606	2	-18.8133	 7.07307	 20.0099	C.1
  2607	2	-18.5204	 7.06852	 19.1167	C.1
  2608	2	-18.6515	 5.34972	 20.0718	C.1
  2609	2	-18.3585	 5.34517	 19.1786	C.1
  2610	2	-17.3141	 6.36123	 20.5053	C.1
  2611	2	-17.0211	 6.35668	 19.6121	C.1
  2612	1	 1.72979	 18.1588	-12.4987	N.3
  2613	2	 2.22911	  17.937	-13.4591	C.1
  2614	2	 1.39878	 18.3717	-13.5312	C.1
  2615	2	 2.50223	 18.7115	-11.9341	C.1
  2616	2	 1.67191	 19.1462	-12.0062	C.1
  2617	2	 1.70351	 17.1758	-11.9948	C.1
  2618	2	0.873189	 17.6105	-12.0668	C.1
  2619	1	 7.84599	 5.21144	 14.4336	N.3
  2620	2	 8.76882	 5.63045	 13.9934	C.1
  2621	2	 8.03317	 5.58359	 13.4102	C.1
  2622	2	 7.69214	 5.83127	 15.3352	C.1
  2623	2	 6.95649	 5.78441	 14.7519	C.1
  2624	2	 8.18047	 4.24289	  14.847	C.1
  2625	2	 7.44482	 4.19603	 14.2637	C.1
  2626	1	-17.1133	-4.08692	 9.02242	N.3
  2627	2	-16.7264	-4.81525	 9.75775	C.1
  2628	2	-16.6454	-5.07426	 8.85777	C.1
  2629	2	-16.5882	-3.15281	 9.29175	C.1
  2630	2	-16.5072	-3.41182	 8.39177	C.1
  2631	2	-18.1469	 -3.9042	 9.36773	C.1
  2632	2	-18.0659	-4.16321	 8.46775	C.1
  2633	1	-18.5848	 19.5968	 10.4766	N.3
  2634	2	-19.0865	 20.4352	 10.9927	C.1
  2635	2	-19.4759	 20.1773	 10.1769	C.1
  2636	2	-18.5494	 18.8088	 11.2503	C.1
  2637	2	-18.9388	 18.5509	 10.4346	C.1
  2638	2	-17.5344	 19.9332	 10.4105	C.1
  2639	2	-17.9238	 19.6753	 9.59469	C.1
  2640	1	 1.32048	 16.3723	-8.73101	N.3
  2641	2	0.333159	 16.3411	-8.23591	C.1
  2642	2	0.317932	 16.5867	-9.14313	C.1
  2643	2	 1.73964	 15.3716	-8.52195	C.1
  2644	2	 1.72441	 15.6171	-9.42917	C.1
  2645	2	 1.91148	 17.0359	-8.07433	C.1
  2646	2	 1.89626	 17.2815	-8.98155	C.1
  2647	1	0.597346	-4.93041	-8.22414	N.3
  2648	2	 1.63621	-4.55461	  -8.245	C.1
  2649	2	 1.30319	-4.85547	-9.07094	C.1
  2650	2	0.0359401	-4.09578	-7.76691	C.1
  2651	2	-0.297078	-4.39664	-8.59285	C.1
  2652	2	0.619416	-5.68956	-7.42161	C.1
  2653	2	0.286397	-5.99042	-8.24755	C.1
  2654	1	-1.97621	 2.09945	 14.6309	N.3
  2655	2	-1.00891	 2.50294	  14.281	C.1
  2656	2	-1.59834	 3.13767	 14.6461	C.1
  2657	2	-1.67746	 1.28632	 15.3168	C.1
  2658	2	-2.26689	 1.92104	 15.6819	C.1
  2659	2	-2.35811	 1.55702	 13.7473	C.1
  2660	2	-2.94754	 2.19174	 14.1124	C.1
  2661	1	 16.2919	-9.60025	-14.2626	N.3
  2662	2	 17.2731	-9.34357	-14.7011	C.1
  2663	2	 16.9985	-10.2334	-14.8289	C.1
  2664	2	 15.6176	-8.83472	-14.6869	C.1
  2665	2	  15.343	-9.72458	-14.8147	C.1
  2666	2	  16.397	-9.28767	 -13.208	C.1
  2667	2	 16.1224	-10.1775	-13.3359	C.1
  2668	1	 14.2703	-1.48263	 17.8477	N.3
  2669	2	 13.9229	-0.705832	 18.5525	C.1
  2670	2	 13.6258	-0.603654	 17.6666	C.1
  2671	2	 13.9665	-2.42419	 18.3397	C.1
  2672	2	 13.6694	-2.32201	 17.4537	C.1
  2673	2	 15.3673	-1.47115	 17.9798	C.1
  2674	2	 15.0702	-1.36897	 17.0939	C.1
  2675	1	 19.5319	-16.5395	 12.6119	N.3
  2676	2	 19.5566	-17.4535	 13.2324	C.1
  2677	2	 19.8532	 -17.563	 12.3472	C.1
  2678	2	 20.1051	-15.8107	 13.2128	C.1
  2679	2	 20.4017	-15.9203	 12.3276	C.1
  2680	2	 18.4891	-16.1901	 12.7183	C.1
  2681	2	 18.7857	-16.2996	 11.8331	C.1
  2682	1	-5.38501	 4.70926	-3.35229	N.3
  2683	2	-6.42192	 4.36725	-3.52181	C.1
  2684	2	-5.78885	  4.0447	-4.13726	C.1
  2685	2	 -5.1978	 4.43538	-2.29835	C.1
  2686	2	-4.56473	 4.11284	 -2.9138	C.1
  2687	2	-5.48491	 5.80898	-3.31355	C.1
  2688	2	-4.85184	 5.48644	  -3.929	C.1
  2689	1	 17.0126	 19.0504	 -2.3725	N.3
  2690	2	 16.3844	  18.202	-2.04623	C.1
  2691	2	 16.8107	 18.6734	-1.35367	C.1
  2692	2	  16.324	   19.65	-2.99469	C.1
  2693	2	 16.7503	 20.1214	-2.30213	C.1
  2694	2	   17.69	  18.592	-3.11541	C.1
  2695	2	 18.1163	 19.0634	-2.42286	C.1
  2696	1	 8.31113	-17.0435	 9.94923	N.3
  2697	2	 8.14094	-16.1115	 9.38062	C.1
  2698	2	 8.22786	-16.0025	 10.3102	C.1
  2699	2	 9.18632	 -17.491	 9.44461	C.1
  2700	2	 9.27324	 -17.382	 10.3742	C.1
  2701	2	 7.47576	-17.6914	 9.62805	C.1
  2702	2	 7.56268	-17.5824	 10.5577	C.1
  2703	1	-17.7262	 -5.4986	 4.55125	N.3
  2704	2	-18.6343	-5.99679	 4.93596	C.1
  2705	2	-18.6897	-5.69525	 4.04736	C.1
  2706	2	-16.9296	-6.23872	 4.74764	C.1
  2707	2	 -16.985	-5.93718	 3.85905	C.1
  2708	2	-17.5316	 -4.7126	 5.30303	C.1
  2709	2	-17.5869	-4.41105	 4.41443	C.1
  2710	1	 12.5125	-3.03831	-17.2324	N.3
  2711	2	 13.3244	-2.32132	-17.4508	C.1
  2712	2	 12.9432	-2.24524	-16.5949	C.1
  2713	2	 12.9731	-4.01735	-17.4565	C.1
  2714	2	 12.5919	-3.94127	-16.6006	C.1
  2715	2	 11.8118	-2.89038	-18.0738	C.1
  2716	2	 11.4306	 -2.8143	 -17.218	C.1
  2717	1	-13.3195	 7.66672	 7.62384	N.3
  2718	2	-12.7851	  8.1049	 8.48601	C.1
  2719	2	-12.2731	 8.01262	 7.70312	C.1
  2720	2	-14.2134	 8.30897	  7.5278	C.1
  2721	2	-13.7014	 8.21669	 6.74491	C.1
  2722	2	-13.7279	 6.72471	 8.03205	C.1
  2723	2	-13.2159	 6.63244	 7.24916	C.1
  2724	1	 1.28979	 2.98955	 16.1552	N.3
  2725	2	0.656709	 2.89916	 15.2541	C.1
  2726	2	0.188688	 2.99707	 16.0634	C.1
  2727	2	 1.97123	 3.82185	 15.9027	C.1
  2728	2	 1.50321	 3.91976	  16.712	C.1
  2729	2	 1.94346	 2.10077	 16.0948	C.1
  2730	2	 1.47543	 2.19868	 16.9041	C.1
  2731	1	-18.9275	 -16.338	-12.0854	N.3
  2732	2	-19.7868	-15.8012	-12.5264	C.1
  2733	2	 -19.992	-16.6302	-12.1337	C.1
  2734	2	-18.4865	-15.5904	-11.4017	C.1
  2735	2	-18.6918	-16.4194	 -11.009	C.1
  2736	2	-18.2013	-16.3788	-12.9172	C.1
  2737	2	-18.4066	-17.2079	-12.5245	C.1
  2738	1	   13.76	 18.2937	-15.2098	N.3
  2739	2	 13.2678	 17.9308	-16.1301	C.1
  2740	2	  13.293	 17.3147	-15.4206	C.1
  2741	2	 13.2276	 19.2376	 -14.994	C.1
  2742	2	 13.2528	 18.6214	-14.2845	C.1
  2743	2	 14.7467	 18.6369	-15.5695	C.1
  2744	2	 14.7719	 18.0208	  -14.86	C.1
  2745	1	-17.8384	  5.0075	-17.1362	N.3
  2746	2	-17.7812	 5.04359	-16.0333	C.1
  2747	2	-17.2601	 4.37468	 -16.439	C.1
  2748	2	-17.5917	 6.04199	-17.4359	C.1
  2749	2	-17.0706	 5.37308	-17.8416	C.1
  2750	2	 -18.924	 4.94028	-17.3307	C.1
  2751	2	-18.4029	 4.27138	-17.7364	C.1
  2752	1	-7.47691	 11.6013	-11.6448	N.3
  2753	2	-6.98615	 10.6153	-11.5561	C.1
  2754	2	 -7.9056	 10.5883	-11.7496	C.1
  2755	2	-6.85465	 12.1269	-12.3913	C.1
  2756	2	-7.77411	 12.0999	-12.5849	C.1
  2757	2	-7.21074	 12.1021	-10.6965	C.1
  2758	2	-8.13019	 12.0751	-10.8901	C.1
  2759	1	 16.3938	-16.9917	-8.06238	N.3
  2760	2	 17.4097	-16.8788	-8.48193	C.1
  2761	2	 16.7341	-16.4116	-8.93906	C.1
  2762	2	 16.5255	-16.7096	-7.00224	C.1
  2763	2	 15.8499	-16.2425	-7.45936	C.1
  2764	2	 16.2596	-18.0875	-8.01727	C.1
  2765	2	  15.584	-17.6204	 -8.4744	C.1
  2766	1	 1.13767	 13.7342	 4.37754	N.3
  2767	2	0.847732	 12.9082	  5.0518	C.1
  2768	2	   0.352	 13.7003	 5.15373	C.1
  2769	2	 1.08483	 13.2723	 3.37515	C.1
  2770	2	0.589098	 14.0645	 3.47708	C.1
  2771	2	 2.22406	 13.8338	 4.55277	C.1
  2772	2	 1.72832	 14.6259	  4.6547	C.1
  2773	1	-19.3282	-0.772287	-19.7949	N.3
  2774	2	-18.8216	-0.83716	-18.8151	C.1
  2775	2	-19.1507	0.0142972	-19.0395	C.1
  2776	2	-20.0899	-1.57073	-19.7388	C.1
  2777	2	-20.4189	-0.71927	-19.9632	C.1
  2778	2	-18.5795	-1.18616	-20.4942	C.1
  2779	2	-18.9085	-0.334704	-20.7186	C.1
  2780	1	-7.07491	-4.99098	 -14.149	N.3
  2781	2	-6.99165	 -4.2148	 -14.931	C.1
  2782	2	-6.64395	-5.05638	-15.1643	C.1
  2783	2	-8.15048	-4.98048	-13.8962	C.1
  2784	2	-7.80278	-5.82206	-14.1295	C.1
  2785	2	-6.60417	 -4.5153	-13.2698	C.1
  2786	2	-6.25647	-5.35688	-13.5032	C.1
  2787	1	-12.2545	 9.32475	 12.7944	N.3
  2788	2	-12.0752	 8.37209	 12.2642	C.1
  2789	2	-12.2721	 9.10646	 11.7114	C.1
  2790	2	-11.3526	 9.43784	 13.4226	C.1
  2791	2	-11.5496	 10.1722	 12.8699	C.1
  2792	2	-13.0404	 9.06277	 13.5256	C.1
  2793	2	-13.2373	 9.79713	 12.9729	C.1
  2794	1	  6.9792	-2.42769	 15.1512	N.3
  2795	2	 7.21746	-2.79254	 14.1358	C.1
  2796	2	 6.33591	-2.95106	  14.421	C.1
  2797	2	 7.27707	-1.36433	 15.1138	C.1
  2798	2	 6.39552	-1.52285	  15.399	C.1
  2799	2	 7.76538	-2.88841	 15.7761	C.1
  2800	2	 6.88383	-3.04693	 16.0613	C.1
@<TRIPOS>BOND
       1	       1	       2	 1
       2	       1	       3	 1
       3	       1	       4	 1
       4	       1	       5	 1
       5	       1	       6	 1
       6	       1	       7	 1
       7	       8	       9	 1
       8	       8	      10	 1
       9	       8	      11	 1
      10	       8	      12	 1
      11	       8	      13	 1
      12	       8	      14	 1
      13	      15	      16	 1
      14	      15	      17	 1
      15	      15	      18	 1
      16	      15	      19	 1
      17	      15	      20	 1
      18	      15	      21	 1
      19	      22	      23	 1
      20	      22	      24	 1
      21	      22	      25	 1
      22	      22	      26	 1
      23	      22	      27	 1
      24	      22	      28	 1
      25	      29	      30	 1
      26	      29	      31	 1
      27	      29	      32	 1
      28	      29	      33	 1
      29	      29	      34	 1
      30	      29	      35	 1
      31	      36	      37	 1
      32	      36	      38	 1
      33	      36	      39	 1
      34	      36	      40	 1
      35	      36	      41	 1
      36	      36	      42	 1
      37	      43	      44	 1
      38	      43	      45	 1
      39	      43	      46	 1
      40	      43	      47	 1
      41	      43	      48	 1
      42	      43	      49	 1
      43	      50	      51	 1
      44	      50	      52	 1
      45	      50	      53	 1
      46	      50	      54	 1
      47	      50	      55	 1
      48	      50	      56	 1
      49	      57	      58	 1
      50	      57	      59	 1
      51	      57	      60	 1
      52	      57	      61	 1
      53	      57	      62	 1
      54	      57	      63	 1
      55	      64	      65	 1
      56	      64	      66	 1
      57	      64	      67	 1
      58	      64	      68	 1
      59	      64	      69	 1
      60	      64	      70	 1
      61	      71	      72	 1
      62	      71	      73	 1
      63	      71	      74	 1
      64	      71	      75	 1
      65	      71	      76	 1
      66	      71	      77	 1
      67	      78	      79	 1
      68	      78	      80	 1
      69	      78	      81	 1
      70	      78	      82	 1
      71	      78	      83	 1
      72	      78	      84	 1
      73	      85	      86	 1
      74	      85	      87	 1
      75	      85	      88	 1
      76	      85	      89	 1
      77	      85	      90	 1
      78	      85	      91	 1
      79	      92	      93	 1
      80	      92	      94	 1
      81	      92	      95	 1
      82	      92	      96	 1
      83	      92	      97	 1
      84	      92	      98	 1
      85	      99	     100	 1
      86	      99	     101	 1
      87	      99	     102	 1
      88	      99	     103	 1
      89	      99	     104	 1
      90	      99	     105	 1
      91	     106	     107	 1
      92	     106	     108	 1
      93	     106	     109	 1
      94	     106	     110	 1
      95	     106	     111	 1
      96	     106	     112	 1
      97	     113	     114	 1
      98	     113	     115	 1
      99	     113	     116	 1
     100	     113	     117	 1
     101	     113	     118	 1
     102	     113	     119	 1
     103	     120	     121	 1
     104	     120	     122	 1
     105	     120	     123	 1
     106	     120	     124	 1
     107	     120	     125	 1
     108	     120	     126	 1
     109	     127	     128	 1
     110	     127	     129	 1
     111	     127	     130	 1
     112	     127	     131	 1
     113	     127	     132	 1
     114	     127	     133	 1
     115	     134	     135	 1
     116	     134	     136	 1
     117	     134	     137	 1
     118	     134	     138	 1
     119	     134	     139	 1
     120	     134	     140	 1
     121	     141	     142	 1
     122	     141	     143	 1
     123	     141	     144	 1
     124	     141	     145	 1
     125	     141	     146	 1
     126	     141	     147	 1
     127	     148	     149	 1
     128	     148	     150	 1
     129	     148	     151	 1
     130	     148	     152	 1
     131	     148	     153	 1
     132	     148	     154	 1
     133	     155	     156	 1
     134	     155	     157	 1
     135	     155	     158	 1
     136	     155	     159	 1
     137	     155	     160	 1
     138	     155	     161	 1
     139	     162	     163	 1
     140	     162	     164	 1
     141	     162	     165	 1
     142	     162	     166	 1
     143	     162	     167	 1
     144	     162	     168	 1
     145	     169	     170	 1
     146	     169	     171	 1
     147	     169	     172	 1
     148	     169	     173	 1
     149	     169	     174	 1
     150	     169	     175	 1
     151	     176	     177	 1
     152	     176	     178	 1
     153	     176	     179	 1
     154	     176	     180	 1
     155	     176	     181	 1
     156	     176	     182	 1
     157	     183	     184	 1
     158	     183	     185	 1
     159	     183	     186	 1
     160	     183	     187	 1
     161	     183	     188	 1
     162	     183	     189	 1
     163	     190	     191	 1
     164	     190	     192	 1
     165	     190	     193	 1
     166	     190	     194	 1
     167	     190	     195	 1
     168	     190	     196	 1
     169	     197	     198	 1
     170	     197	     199	 1
     171	     197	     200	 1
     172	     197	     201	 1
     173	     197	     202	 1
     174	     197	     203	 1
     175	     204	     205	 1
     176	     204	     206	 1
     177	     204	     207	 1
     178	     204	     208	 1
     179	     204	     209	 1
     180	     204	     210	 1
     181	     211	     212	 1
     182	     211	     213	 1
     183	     211	     214	 1
     184	     211	     215	 1
     185	     211	     216	 1
     186	     211	     217	 1
     187	     218	     219	 1
     188	     218	     220	 1
     189	     218	     221	 1
     190	     218	     222	 1
     191	     218	     223	 1
     192	     218	     224	 1
     193	     225	     226	 1
     194	     225	     227	 1
     195	     225	     228	 1
     196	     225	     229	 1
     197	     225	     230	 1
     198	     225	     231	 1
     199	     232	     233	 1
     200	     232	     234	 1
     201	     232	     235	 1
     202	     232	     236	 1
     203	     232	     237	 1
     204	     232	     238	 1
     205	     239	     240	 1
     206	     239	     241	 1
     207	     239	     242	 1
     208	     239	     243	 1
     209	     239	     244	 1
     210	     239	     245	 1
     211	     246	     247	 1
     212	     246	     248	 1
     213	     246	     249	 1
     214	     246	     250	 1
     215	     246	     251	 1
     216	     246	     252	 1
     217	     253	     254	 1
     218	     253	     255	 1
     219	     253	     256	 1
     220	     253	     257	 1
     221	     253	     258	 1
     222	     253	     259	 1
     223	     260	     261	 1
     224	     260	     262	 1
     225	     260	     263	 1
     226	     260	     264	 1
     227	     260	     265	 1
     228	     260	     266	 1
     229	     267	     268	 1
     230	     267	     269	 1
     231	     267	     270	 1
     232	     267	     271	 1
     233	     267	     272	 1
     234	     267	     273	 1
     235	     274	     275	 1
     236	     274	     276	 1
     237	     274	     277	 1
     238	     274	     278	 1
     239	     274	     279	 1
     240	     274	     280	 1
     241	     281	     282	 1
     242	     281	     283	 1
     243	     281	     284	 1
     244	     281	     285	 1
     245	     281	     286	 1
     246	     281	     287	 1
     247	     288	     289	 1
     248	     288	     290	 1
     249	     288	     291	 1
     250	     288	     292	 1
     251	     288	     293	 1
     252	     288	     294	 1
     253	     295	     296	 1
     254	     295	     297	 1
     255	     295	     298	 1
     256	     295	     299	 1
     257	     295	     300	 1
     258	     295	     301	 1
     259	     302	     303	 1
     260	     302	     304	 1
     261	     302	     305	 1
     262	     302	     306	 1
     263	     302	     307	 1
     264	     302	     308	 1
     265	     309	     310	 1
     266	     309	     311	 1
     267	     309	     312	 1
     268	     309	     313	 1
     269	     309	     314	 1
     270	     309	     315	 1
     271	     316	     317	 1
     272	     316	     318	 1
     273	     316	     319	 1
     274	     316	     320	 1
     275	     316	     321	 1
     276	     316	     322	 1
     277	     323	     324	 1
     278	     323	     325	 1
     279	     323	     326	 1
     280	     323	     327	 1
     281	     323	     328	 1
     282	     323	     329	 1
     283	     330	     331	 1
     284	     330	     332	 1
     285	     330	     333	 1
     286	     330	     334	 1
     287	     330	     335	 1
     288	     330	     336	 1
     289	     337	     338	 1
     290	     337	     339	 1
     291	     337	     340	 1
     292	     337	     341	 1
     293	     337	     342	 1
     294	     337	     343	 1
     295	     344	     345	 1
     296	     344	     346	 1
     297	     344	     347	 1
     298	     344	     348	 1
     299	     344	     349	 1
     300	     344	     350	 1
     301	     351	     352	 1
     302	     351	     353	 1
     303	     351	     354	 1
     304	     351	     355	 1
     305	     351	     356	 1
     306	     351	     357	 1
     307	     358	     359	 1
     308	     358	     360	 1
     309	     358	     361	 1
     310	     358	     362	 1
     311	     358	     363	 1
     312	     358	     364	 1
     313	     365	     366	 1
     314	     365	     367	 1
     315	     365	     368	 1
     316	     365	     369	 1
     317	     365	     370	 1
     318	     365	     371	 1
     319	     372	     373	 1
     320	     372	     374	 1
     321	     372	     375	 1
     322	     372	     376	 1
     323	     372	     377	 1
     324	     372	     378	 1
     325	     379	     380	 1
     326	     379	     381	 1
     327	     379	     382	 1
     328	     379	     383	 1
     329	     379	     384	 1
     330	     379	     385	 1
     331	     386	     387	 1
     332	     386	     388	 1
     333	     386	     389	 1
     334	     386	     390	 1
     335	     386	     391	 1
     336	     386	     392	 1
     337	     393	     394	 1
     338	     393	     395	 1
     339	     393	     396	 1
     340	     393	     397	 1
     341	     393	     398	 1
     342	     393	     399	 1
     343	     400	     401	 1
     344	     400	     402	 1
     345	     400	     403	 1
     346	     400	     404	 1
     347	     400	     405	 1
     348	     400	     406	 1
     349	     407	     408	 1
     350	     407	     409	 1
     351	     407	     410	 1
     352	     407	     411	 1
     353	     407	     412	 1
     354	     407	     413	 1
     355	     414	     415	 1
     356	     414	     416	 1
     357	     414	     417	 1
     358	     414	     418	 1
     359	     414	     419	 1
     360	     414	     420	 1
     361	     421	     422	 1
     362	     421	     423	 1
     363	     421	     424	 1
     364	     421	     425	 1
     365	     421	     426	 1
     366	     421	     427	 1
     367	     428	     429	 1
     368	     428	     430	 1
     369	     428	     431	 1
     370	     428	     432	 1
     371	     428	     433	 1
     372	     428	     434	 1
     373	     435	     436	 1
     374	     435	     437	 1
     375	     435	     438	 1
     376	     435	     439	 1
     377	     435	     440	 1
     378	     435	     441	 1
     379	     442	     443	 1
     380	     442	     444	 1
     381	     442	     445	 1
     382	     442	     446	 1
     383	     442	     447	 1
     384	     442	     448	 1
     385	     449	     450	 1
     386	     449	     451	 1
     387	     449	     452	 1
     388	     449	     453	 1
     389	     449	     454	 1
     390	     449	     455	 1
     391	     456	     457	 1
     392	     456	     458	 1
     393	     456	     459	 1
     394	     456	     460	 1
     395	     456	     461	 1
     396	     456	     462	 1
     397	     463	     464	 1
     398	     463	     465	 1
     399	     463	     466	 1
     400	     463	     467	 1
     401	     463	     468	 1
     402	     463	     469	 1
     403	     470	     471	 1
     404	     470	     472	 1
     405	     470	     473	 1
     406	     470	     474	 1
     407	     470	     475	 1
     408	     470	     476	 1
     409	     477	     478	 1
     410	     477	     479	 1
     411	     477	     480	 1
     412	     477	     481	 1
     413	     477	     482	 1
     414	     477	     483	 1
     415	     484	     485	 1
     416	     484	     486	 1
     417	     484	     487	 1
     418	     484	     488	 1
     419	     484	     489	 1
     420	     484	     490	 1
     421	     491	     492	 1
     422	     491	     493	 1
     423	     491	     494	 1
     424	     491	     495	 1
     425	     491	     496	 1
     426	     491	     497	 1
     427	     498	     499	 1
     428	     498	     500	 1
     429	     498	     501	 1
     430	     498	     502	 1
     431	     498	     503	 1
     432	     498	     504	 1
     433	     505	     506	 1
     434	     505	     507	 1
     435	     505	     508	 1
     436	     505	     509	 1
     437	     505	     510	 1
     438	     505	     511	 1
     439	     512	     513	 1
     440	     512	     514	 1
     441	     512	     515	 1
     442	     512	     516	 1
     443	     512	     517	 1
     444	     512	     518	 1
     445	     519	     520	 1
     446	     519	     521	 1
     447	     519	     522	 1
     448	     519	     523	 1
     449	     519	     524	 1
     450	     519	     525	 1
     451	     526	     527	 1
     452	     526	     528	 1
     453	     526	     529	 1
     454	     526	     530	 1
     455	     526	     531	 1
     456	     526	     532	 1
     457	     533	     534	 1
     458	     533	     535	 1
     459	     533	     536	 1
     460	     533	     537	 1
     461	     533	     538	 1
     462	     533	     539	 1
     463	     540	     541	 1
     464	     540	     542	 1
     465	     540	     543	 1
     466	     540	     544	 1
     467	     540	     545	 1
     468	     540	     546	 1
     469	     547	     548	 1
     470	     547	     549	 1
     471	     547	     550	 1
     472	     547	     551	 1
     473	     547	     552	 1
     474	     547	     553	 1
     475	     554	     555	 1
     476	     554	     556	 1
     477	     554	     557	 1
     478	     554	     558	 1
     479	     554	     559	 1
     480	     554	     560	 1
     481	     561	     562	 1
     482	     561	     563	 1
     483	     561	     564	 1
     484	     561	     565	 1
     485	     561	     566	 1
     486	     561	     567	 1
     487	     568	     569	 1
     488	     568	     570	 1
     489	     568	     571	 1
     490	     568	     572	 1
     491	     568	     573	 1
     492	     568	     574	 1
     493	     575	     576	 1
     494	     575	     577	 1
     495	     575	     578	 1
     496	     575	     579	 1
     497	     575	     580	 1
     498	     575	     581	 1
     499	     582	     583	 1
     500	     582	     584	 1
     501	     582	     585	 1
     502	     582	     586	 1
     503	     582	     587	 1
     504	     582	     588	 1
     505	     589	     590	 1
     506	     589	     591	 1
     507	     589	     592	 1
     508	     589	     593	 1
     509	     589	     594	 1
     510	     589	     595	 1
     511	     596	     597	 1
     512	     596	     598	 1
     513	     596	     599	 1
     514	     596	     600	 1
     515	     596	     601	 1
     516	     596	     602	 1
     517	     603	     604	 1
     518	     603	     605	 1
     519	     603	     606	 1
     520	     603	     607	 1
     521	     603	     608	 1
     522	     603	     609	 1
     523	     610	     611	 1
     524	     610	     612	 1
     525	     610	     613	 1
     526	     610	     614	 1
     527	     610	     615	 1
     528	     610	     616	 1
     529	     617	     618	 1
     530	     617	     619	 1
     531	     617	     620	 1
     532	     617	     621	 1
     533	     617	     622	 1
     534	     617	     623	 1
     535	     624	     625	 1
     536	     624	     626	 1
     537	     624	     627	 1
     538	     624	     628	 1
     539	     624	     629	 1
     540	     624	     630	 1
     541	     631	     632	 1
     542	     631	     633	 1
     543	     631	     634	 1
     544	     631	     635	 1
     545	     631	     636	 1
     546	     631	     637	 1
     547	     638	     639	 1
     548	     638	     640	 1
     549	     638	     641	 1
     550	     638	     642	 1
     551	     638	     643	 1
     552	     638	     644	 1
     553	     645	     646	 1
     554	     645	     647	 1
     555	     645	     648	 1
     556	     645	     649	 1
     557	     645	     650	 1
     558	     645	     651	 1
     559	     652	     653	 1
     560	     652	     654	 1
     561	     652	     655	 1
     562	     652	     656	 1
     563	     652	     657	 1
     564	     652	     658	 1
     565	     659	     660	 1
     566	     659	     661	 1
     567	     659	     662	 1
     568	     659	     663	 1
     569	     659	     664	 1
     570	     659	     665	 1
     571	     666	     667	 1
     572	     666	     668	 1
     573	     666	     669	 1
     574	     666	     670	 1
     575	     666	     671	 1
     576	     666	     672	 1
     577	     673	     674	 1
     578	     673	     675	 1
     579	     673	     676	 1
     580	     673	     677	 1
     581	     673	     678	 1
     582	     673	     679	 1
     583	     680	     681	 1
     584	     680	     682	 1
     585	     680	     683	 1
     586	     680	     684	 1
     587	     680	     685	 1
     588	     680	     686	 1
     589	     687	     688	 1
     590	     687	     689	 1
     591	     687	     690	 1
     592	     687	     691	 1
     593	     687	     692	 1
     594	     687	     693	 1
     595	     694	     695	 1
     596	     694	     696	 1
     597	     694	     697	 1
     598	     694	     698	 1
     599	     694	     699	 1
     600	     694	     700	 1
     601	     701	     702	 1
     602	     701	     703	 1
     603	     701	     704	 1
     604	     701	     705	 1
     605	     701	     706	 1
     606	     701	     707	 1
     607	     708	     709	 1
     608	     708	     710	 1
     609	     708	     711	 1
     610	     708	     712	 1
     611	     708	     713	 1
     612	     708	     714	 1
     613	     715	     716	 1
     614	     715	     717	 1
     615	     715	     718	 1
     616	     715	     719	 1
     617	     715	     720	 1
     618	     715	     721	 1
     619	     722	     723	 1
     620	     722	     724	 1
     621	     722	     725	 1
     622	     722	     726	 1
     623	     722	     727	 1
     624	     722	     728	 1
     625	     729	     730	 1
     626	     729	     731	 1
     627	     729	     732	 1
     628	     729	     733	 1
     629	     729	     734	 1
     630	     729	     735	 1
     631	     736	     737	 1
     632	     736	     738	 1
     633	     736	     739	 1
     634	     736	     740	 1
     635	     736	     741	 1
     636	     736	     742	 1
     637	     743	     744	 1
     638	     743	     745	 1
     639	     743	     746	 1
     640	     743	     747	 1
     641	     743	     748	 1
     642	     743	     749	 1
     643	     750	     751	 1
     644	     750	     752	 1
     645	     750	     753	 1
     646	     750	     754	 1
     647	     750	     755	 1
     648	     750	     756	 1
     649	     757	     758	 1
     650	     757	     759	 1
     651	     757	     760	 1
     652	     757	     761	 1
     653	     757	     762	 1
     654	     757	     763	 1
     655	     764	     765	 1
     656	     764	     766	 1
     657	     764	     767	 1
     658	     764	     768	 1
     659	     764	     769	 1
     660	     764	     770	 1
     661	     771	     772	 1
     662	     771	     773	 1
     663	     771	     774	 1
     664	     771	     775	 1
     665	     771	     776	 1
     666	     771	     777	 1
     667	     778	     779	 1
     668	     778	     780	 1
     669	     778	     781	 1
     670	     778	     782	 1
     671	     778	     783	 1
     672	     778	     784	 1
     673	     785	     786	 1
     674	     785	     787	 1
     675	     785	     788	 1
     676	     785	     789	 1
     677	     785	     790	 1
     678	     785	     791	 1
     679	     792	     793	 1
     680	     792	     794	 1
     681	     792	     795	 1
     682	     792	     796	 1
     683	     792	     797	 1
     684	     792	     798	 1
     685	     799	     800	 1
     686	     799	     801	 1
     687	     799	     802	 1
     688	     799	     803	 1
     689	     799	     804	 1
     690	     799	     805	 1
     691	     806	     807	 1
     692	     806	     808	 1
     693	     806	     809	 1
     694	     806	     810	 1
     695	     806	     811	 1
     696	     806	     812	 1
     697	     813	     814	 1
     698	     813	     815	 1
     699	     813	     816	 1
     700	     813	     817	 1
     701	     813	     818	 1
     702	     813	     819	 1
     703	     820	     821	 1
     704	     820	     822	 1
     705	     820	     823	 1
     706	     820	     824	 1
     707	     820	     825	 1
     708	     820	     826	 1
     709	     827	     828	 1
     710	     827	     829	 1
     711	     827	     830	 1
     712	     827	     831	 1
     713	     827	     832	 1
     714	     827	     833	 1
     715	     834	     835	 1
     716	     834	     836	 1
     717	     834	     837	 1
     718	     834	     838	 1
     719	     834	     839	 1
     720	     834	     840	 1
     721	     841	     842	 1
     722	     841	     843	 1
     723	     841	     844	 1
     724	     841	     845	 1
     725	     841	     846	 1
     726	     841	     847	 1
     727	     848	     849	 1
     728	     848	     850	 1
     729	     848	     851	 1
     730	     848	     852	 1
     731	     848	     853	 1
     732	     848	     854	 1
     733	     855	     856	 1
     734	     855	     857	 1
     735	     855	     858	 1
     736	     855	     859	 1
     737	     855	     860	 1
     738	     855	     861	 1
     739	     862	     863	 1
     740	     862	     864	 1
     741	     862	     865	 1
     742	     862	     866	 1
     743	     862	     867	 1
     744	     862	     868	 1
     745	     869	     870	 1
     746	     869	     871	 1
     747	     869	     872	 1
     748	     869	     873	 1
     749	     869	     874	 1
     750	     869	     875	 1
     751	     876	     877	 1
     752	     876	     878	 1
     753	     876	     879	 1
     754	     876	     880	 1
     755	     876	     881	 1
     756	     876	     882	 1
     757	     883	     884	 1
     758	     883	     885	 1
     759	     883	     886	 1
     760	     883	     887	 1
     761	     883	     888	 1
     762	     883	     889	 1
     763	     890	     891	 1
     764	     890	     892	 1
     765	     890	     893	 1
     766	     890	     894	 1
     767	     890	     895	 1
     768	     890	     896	 1
     769	     897	     898	 1
     770	     897	     899	 1
     771	     897	     900	 1
     772	     897	     901	 1
     773	     897	     902	 1
     774	     897	     903	 1
     775	     904	     905	 1
     776	     904	     906	 1
     777	     904	     907	 1
     778	     904	     908	 1
     779	     904	     909	 1
     780	     904	     910	 1
     781	     911	     912	 1
     782	     911	     913	 1
     783	     911	     914	 1
     784	     911	     915	 1
     785	     911	     916	 1
     786	     911	     917	 1
     787	     918	     919	 1
     788	     918	     920	 1
     789	     918	     921	 1
     790	     918	     922	 1
     791	     918	     923	 1
     792	     918	     924	 1
     793	     925	     926	 1
     794	     925	     927	 1
     795	     925	     928	 1
     796	     925	     929	 1
     797	     925	     930	 1
     798	     925	     931	 1
     799	     932	     933	 1
     800	     932	     934	 1
     801	     932	     935	 1
     802	     932	     936	 1
     803	     932	     937	 1
     804	     932	     938	 1
     805	     939	     940	 1
     806	     939	     941	 1
     807	     939	     942	 1
     808	     939	     943	 1
     809	     939	     944	 1
     810	     939	     945	 1
     811	     946	     947	 1
     812	     946	     948	 1
     813	     946	     949	 1
     814	     946	     950	 1
     815	     946	     951	 1
     816	     946	     952	 1
     817	     953	     954	 1
     818	     953	     955	 1
     819	     953	     956	 1
     820	     953	     957	 1
     821	     953	     958	 1
     822	     953	     959	 1
     823	     960	     961	 1
     824	     960	     962	 1
     825	     960	     963	 1
     826	     960	     964	 1
     827	     960	     965	 1
     828	     960	     966	 1
     829	     967	     968	 1
     830	     967	     969	 1
     831	     967	     970	 1
     832	     967	     971	 1
     833	     967	     972	 1
     834	     967	     973	 1
     835	     974	     975	 1
     836	     974	     976	 1
     837	     974	     977	 1
     838	     974	     978	 1
     839	     974	     979	 1
     840	     974	     980	 1
     841	     981	     982	 1
     842	     981	     983	 1
     843	     981	     984	 1
     844	     981	     985	 1
     845	     981	     986	 1
     846	     981	     987	 1
     847	     988	     989	 1
     848	     988	     990	 1
     849	     988	     991	 1
     850	     988	     992	 1
     851	     988	     993	 1
     852	     988	     994	 1
     853	     995	     996	 1
     854	     995	     997	 1
     855	     995	     998	 1
     856	     995	     999	 1
     857	     995	    1000	 1
     858	     995	    1001	 1
     859	    1002	    1003	 1
     860	    1002	    1004	 1
     861	    1002	    1005	 1
     862	    1002	    1006	 1
     863	    1002	    1007	 1
     864	    1002	    1008	 1
     865	    1009	    1010	 1
     866	    1009	    1011	 1
     867	    1009	    1012	 1
     868	    1009	    1013	 1
     869	    1009	    1014	 1
     870	    1009	    1015	 1
     871	    1016	    1017	 1
     872	    1016	    1018	 1
     873	    1016	    1019	 1
     874	    1016	    1020	 1
     875	    1016	    1021	 1
     876	    1016	    1022	 1
     877	    1023	    1024	 1
     878	    1023	    1025	 1
     879	    1023	    1026	 1
     880	    1023	    1027	 1
     881	    1023	    1028	 1
     882	    1023	    1029	 1
     883	    1030	    1031	 1
     884	    1030	    1032	 1
     885	    1030	    1033	 1
     886	    1030	    1034	 1
     887	    1030	    1035	 1
     888	    1030	    1036	 1
     889	    1037	    1038	 1
     890	    1037	    1039	 1
     891	    1037	    1040	 1
     892	    1037	    1041	 1
     893	    1037	    1042	 1
     894	    1037	    1043	 1
     895	    1044	    1045	 1
     896	    1044	    1046	 1
     897	    1044	    1047	 1
     898	    1044	    1048	 1
     899	    1044	    1049	 1
     900	    1044	    1050	 1
     901	    1051	    1052	 1
     902	    1051	    1053	 1
     903	    1051	    1054	 1
     904	    1051	    1055	 1
     905	    1051	    1056	 1
     906	    1051	    1057	 1
     907	    1058	    1059	 1
     908	    1058	    1060	 1
     909	    1058	    1061	 1
     910	    1058	    1062	 1
     911	    1058	    1063	 1
     912	    1058	    1064	 1
     913	    1065	    1066	 1
     914	    1065	    1067	 1
     915	    1065	    1068	 1
     916	    1065	    1069	 1
     917	    1065	    1070	 1
     918	    1065	    1071	 1
     919	    1072	    1073	 1
     920	    1072	    1074	 1
     921	    1072	    1075	 1
     922	    1072	    1076	 1
     923	    1072	    1077	 1
     924	    1072	    1078	 1
     925	    1079	    1080	 1
     926	    1079	    1081	 1
     927	    1079	    1082	 1
     928	    1079	    1083	 1
     929	    1079	    1084	 1
     930	    1079	    1085	 1
     931	    1086	    1087	 1
     932	    1086	    1088	 1
     933	    1086	    1089	 1
     934	    1086	    1090	 1
     935	    1086	    1091	 1
     936	    1086	    1092	 1
     937	    1093	    1094	 1
     938	    1093	    1095	 1
     939	    1093	    1096	 1
     940	    1093	    1097	 1
     941	    1093	    1098	 1
     942	    1093	    1099	 1
     943	    1100	    1101	 1
     944	    1100	    1102	 1
     945	    1100	    1103	 1
     946	    1100	    1104	 1
     947	    1100	    1105	 1
     948	    1100	    1106	 1
     949	    1107	    1108	 1
     950	    1107	    1109	 1
     951	    1107	    1110	 1
     952	    1107	    1111	 1
     953	    1107	    1112	 1
     954	    1107	    1113	 1
     955	    1114	    1115	 1
     956	    1114	    1116	 1
     957	    1114	    1117	 1
     958	    1114	    1118	 1
     959	    1114	    1119	 1
     960	    1114	    1120	 1
     961	    1121	    1122	 1
     962	    1121	    1123	 1
     963	    1121	    1124	 1
     964	    1121	    1125	 1
     965	    1121	    1126	 1
     966	    1121	    1127	 1
     967	    1128	    1129	 1
     968	    1128	    1130	 1
     969	    1128	    1131	 1
     970	    1128	    1132	 1
     971	    1128	    1133	 1
     972	    1128	    1134	 1
     973	    1135	    1136	 1
     974	    1135	    1137	 1
     975	    1135	    1138	 1
     976	    1135	    1139	 1
     977	    1135	    1140	 1
     978	    1135	    1141	 1
     979	    1142	    1143	 1
     980	    1142	    1144	 1
     981	    1142	    1145	 1
     982	    1142	    1146	 1
     983	    1142	    1147	 1
     984	    1142	    1148	 1
     985	    1149	    1150	 1
     986	    1149	    1151	 1
     987	    1149	    1152	 1
     988	    1149	    1153	 1
     989	    1149	    1154	 1
     990	    1149	    1155	 1
     991	    1156	    1157	 1
     992	    1156	    1158	 1
     993	    1156	    1159	 1
     994	    1156	    1160	 1
     995	    1156	    1161	 1
     996	    1156	    1162	 1
     997	    1163	    1164	 1
     998	    1163	    1165	 1
     999	    1163	    1166	 1
    1000	    1163	    1167	 1
    1001	    1163	    1168	 1
    1002	    1163	    1169	 1
    1003	    1170	    1171	 1
    1004	    1170	    1172	 1
    1005	    1170	    1173	 1
    1006	    1170	    1174	 1
    1007	    1170	    1175	 1
    1008	    1170	    1176	 1
    1009	    1177	    1178	 1
    1010	    1177	    1179	 1
    1011	    1177	    1180	 1
    1012	    1177	    1181	 1
    1013	    1177	    1182	 1
    1014	    1177	    1183	 1
    1015	    1184	    1185	 1
    1016	    1184	    1186	 1
    1017	    1184	    1187	 1
    1018	    1184	    1188	 1
    1019	    1184	    1189	 1
    1020	    1184	    1190	 1
    1021	    1191	    1192	 1
    1022	    1191	    1193	 1
    1023	    1191	    1194	 1
    1024	    1191	    1195	 1
    1025	    1191	    1196	 1
    1026	    1191	    1197	 1
    1027	    1198	    1199	 1
    1028	    1198	    1200	 1
    1029	    1198	    1201	 1
    1030	    1198	    1202	 1
    1031	    1198	    1203	 1
    1032	    1198	    1204	 1
    1033	    1205	    1206	 1
    1034	    1205	    1207	 1
    1035	    1205	    1208	 1
    1036	    1205	    1209	 1
    1037	    1205	    1210	 1
    1038	    1205	    1211	 1
    1039	    1212	    1213	 1
    1040	    1212	    1214	 1
    1041	    1212	    1215	 1
    1042	    1212	    1216	 1
    1043	    1212	    1217	 1
    1044	    1212	    1218	 1
    1045	    1219	    1220	 1
    1046	    1219	    1221	 1
    1047	    1219	    1222	 1
    1048	    1219	    1223	 1
    1049	    1219	    1224	 1
    1050	    1219	    1225	 1
    1051	    1226	    1227	 1
    1052	    1226	    1228	 1
    1053	    1226	    1229	 1
    1054	    1226	    1230	 1
    1055	    1226	    1231	 1
    1056	    1226	    1232	 1
    1057	    1233	    1234	 1
    1058	    1233	    1235	 1
    1059	    1233	    1236	 1
    1060	    1233	    1237	 1
    1061	    1233	    1238	 1
    1062	    1233	    1239	 1
    1063	    1240	    1241	 1
    1064	    1240	    1242	 1
    1065	    1240	    1243	 1
    1066	    1240	    1244	 1
    1067	    1240	    1245	 1
    1068	    1240	    1246	 1
    1069	    1247	    1248	 1
    1070	    1247	    1249	 1
    1071	    1247	    1250	 1
    1072	    1247	    1251	 1
    1073	    1247	    1252	 1
    1074	    1247	    1253	 1
    1075	    1254	    1255	 1
    1076	    1254	    1256	 1
    1077	    1254	    1257	 1
    1078	    1254	    1258	 1
    1079	    1254	    1259	 1
    1080	    1254	    1260	 1
    1081	    1261	    1262	 1
    1082	    1261	    1263	 1
    1083	    1261	    1264	 1
    1084	    1261	    1265	 1
    1085	    1261	    1266	 1
    1086	    1261	    1267	 1
    1087	    1268	    1269	 1
    1088	    1268	    1270	 1
    1089	    1268	    1271	 1
    1090	    1268	    1272	 1
    1091	    1268	    1273	 1
    1092	    1268	    1274	 1
    1093	    1275	    1276	 1
    1094	    1275	    1277	 1
    1095	    1275	    1278	 1
    1096	    1275	    1279	 1
    1097	    1275	    1280	 1
    1098	    1275	    1281	 1
    1099	    1282	    1283	 1
    1100	    1282	    1284	 1
    1101	    1282	    1285	 1
    1102	    1282	    1286	 1
    1103	    1282	    1287	 1
    1104	    1282	    1288	 1
    1105	    1289	    1290	 1
    1106	    1289	    1291	 1
    1107	    1289	    1292	 1
    1108	    1289	    1293	 1
    1109	    1289	    1294	 1
    1110	    1289	    1295	 1
    1111	    1296	    1297	 1
    1112	    1296	    1298	 1
    1113	    1296	    1299	 1
    1114	    1296	    1300	 1
    1115	    1296	    1301	 1
    1116	    1296	    1302	 1
    1117	    1303	    1304	 1
    1118	    1303	    1305	 1
    1119	    1303	    1306	 1
    1120	    1303	    1307	 1
    1121	    1303	    1308	 1
    1122	    1303	    1309	 1
    1123	    1310	    1311	 1
    1124	    1310	    1312	 1
    1125	    1310	    1313	 1
    1126	    1310	    1314	 1
    1127	    1310	    1315	 1
    1128	    1310	    1316	 1
    1129	    1317	    1318	 1
    1130	    1317	    1319	 1
    1131	    1317	    1320	 1
    1132	    1317	    1321	 1
    1133	    1317	    1322	 1
    1134	    1317	    1323	 1
    1135	    1324	    1325	 1
    1136	    1324	    1326	 1
    1137	    1324	    1327	 1
    1138	    1324	    1328	 1
    1139	    1324	    1329	 1
    1140	    1324	    1330	 1
    1141	    1331	    1332	 1
    1142	    1331	    1333	 1
    1143	    1331	    1334	 1
    1144	    1331	    1335	 1
    1145	    1331	    1336	 1
    1146	    1331	    1337	 1
    1147	    1338	    1339	 1
    1148	    1338	    1340	 1
    1149	    1338	    1341	 1
    1150	    1338	    1342	 1
    1151	    1338	    1343	 1
    1152	    1338	    1344	 1
    1153	    1345	    1346	 1
    1154	    1345	    1347	 1
    1155	    1345	    1348	 1
    1156	    1345	    1349	 1
    1157	    1345	    1350	 1
    1158	    1345	    1351	 1
    1159	    1352	    1353	 1
    1160	    1352	    1354	 1
    1161	    1352	    1355	 1
    1162	    1352	    1356	 1
    1163	    1352	    1357	 1
    1164	    1352	    1358	 1
    1165	    1359	    1360	 1
    1166	    1359	    1361	 1
    1167	    1359	    1362	 1
    1168	    1359	    1363	 1
    1169	    1359	    1364	 1
    1170	    1359	    1365	 1
    1171	    1366	    1367	 1
    1172	    1366	    1368	 1
    1173	    1366	    1369	 1
    1174	    1366	    1370	 1
    1175	    1366	    1371	 1
    1176	    1366	    1372	 1
    1177	    1373	    1374	 1
    1178	    1373	    1375	 1
    1179	    1373	    1376	 1
    1180	    1373	    1377	 1
    1181	    1373	    1378	 1
    1182	    1373	    1379	 1
    1183	    1380	    1381	 1
    1184	    1380	    1382	 1
    1185	    1380	    1383	 1
    1186	    1380	    1384	 1
    1187	    1380	    1385	 1
    1188	    1380	    1386	 1
    1189	    1387	    1388	 1
    1190	    1387	    1389	 1
    1191	    1387	    1390	 1
    1192	    1387	    1391	 1
    1193	    1387	    1392	 1
    1194	    1387	    1393	 1
    1195	    1394	    1395	 1
    1196	    1394	    1396	 1
    1197	    1394	    1397	 1
    1198	    1394	    1398	 1
    1199	    1394	    1399	 1
    1200	    1394	    1400	 1
    1201	    1401	    1402	 1
    1202	    1401	    1403	 1
    1203	    1401	    1404	 1
    1204	    1401	    1405	 1
    1205	    1401	    1406	 1
    1206	    1401	    1407	 1
    1207	    1408	    1409	 1
    1208	    1408	    1410	 1
    1209	    1408	    1411	 1
    1210	    1408	    1412	 1
    1211	    1408	    1413	 1
    1212	    1408	    1414	 1
    1213	    1415	    1416	 1
    1214	    1415	    1417	 1
    1215	    1415	    1418	 1
    1216	    1415	    1419	 1
    1217	    1415	    1420	 1
    1218	    1415	    1421	 1
    1219	    1422	    1423	 1
    1220	    1422	    1424	 1
    1221	    1422	    1425	 1
    1222	    1422	    1426	 1
    1223	    1422	    1427	 1
    1224	    1422	    1428	 1
    1225	    1429	    1430	 1
    1226	    1429	    1431	 1
    1227	    1429	    1432	 1
    1228	    1429	    1433	 1
    1229	    1429	    1434	 1
    1230	    1429	    1435	 1
    1231	    1436	    1437	 1
    1232	    1436	    1438	 1
    1233	    1436	    1439	 1
    1234	    1436	    1440	 1
    1235	    1436	    1441	 1
    1236	    1436	    1442	 1
    1237	    1443	    1444	 1
    1238	    1443	    1445	 1
    1239	    1443	    1446	 1
    1240	    1443	    1447	 1
    1241	    1443	    1448	 1
    1242	    1443	    1449	 1
    1243	    1450	    1451	 1
    1244	    1450	    1452	 1
    1245	    1450	    1453	 1
    1246	    1450	    1454	 1
    1247	    1450	    1455	 1
    1248	    1450	    1456	 1
    1249	    1457	    1458	 1
    1250	    1457	    1459	 1
    1251	    1457	    1460	 1
    1252	    1457	    1461	 1
    1253	    1457	    1462	 1
    1254	    1457	    1463	 1
    1255	    1464	    1465	 1
    1256	    1464	    1466	 1
    1257	    1464	    1467	 1
    1258	    1464	    1468	 1
    1259	    1464	    1469	 1
    1260	    1464	    1470	 1
    1261	    1471	    1472	 1
    1262	    1471	    1473	 1
    1263	    1471	    1474	 1
    1264	    1471	    1475	 1
    1265	    1471	    1476	 1
    1266	    1471	    1477	 1
    1267	    1478	    1479	 1
    1268	    1478	    1480	 1
    1269	    1478	    1481	 1
    1270	    1478	    1482	 1
    1271	    1478	    1483	 1
    1272	    1478	    1484	 1
    1273	    1485	    1486	 1
    1274	    1485	    1487	 1
    1275	    1485	    1488	 1
    1276	    1485	    1489	 1
    1277	    1485	    1490	 1
    1278	    1485	    1491	 1
    1279	    1492	    1493	 1
    1280	    1492	    1494	 1
    1281	    1492	    1495	 1
    1282	    1492	    1496	 1
    1283	    1492	    1497	 1
    1284	    1492	    1498	 1
    1285	    1499	    1500	 1
    1286	    1499	    1501	 1
    1287	    1499	    1502	 1
    1288	    1499	    1503	 1
    1289	    1499	    1504	 1
    1290	    1499	    1505	 1
    1291	    1506	    1507	 1
    1292	    1506	    1508	 1
    1293	    1506	    1509	 1
    1294	    1506	    1510	 1
    1295	    1506	    1511	 1
    1296	    1506	    1512	 1
    1297	    1513	    1514	 1
    1298	    1513	    1515	 1
    1299	    1513	    1516	 1
    1300	    1513	    1517	 1
    1301	    1513	    1518	 1
    1302	    1513	    1519	 1
    1303	    1520	    1521	 1
    1304	    1520	    1522	 1
    1305	    1520	    1523	 1
    1306	    1520	    1524	 1
    1307	    1520	    1525	 1
    1308	    1520	    1526	 1
    1309	    1527	    1528	 1
    1310	    1527	    1529	 1
    1311	    1527	    1530	 1
    1312	    1527	    1531	 1
    1313	    1527	    1532	 1
    1314	    1527	    1533	 1
    1315	    1534	    1535	 1
    1316	    1534	    1536	 1
    1317	    1534	    1537	 1
    1318	    1534	    1538	 1
    1319	    1534	    1539	 1
    1320	    1534	    1540	 1
    1321	    1541	    1542	 1
    1322	    1541	    1543	 1
    1323	    1541	    1544	 1
    1324	    1541	    1545	 1
    1325	    1541	    1546	 1
    1326	    1541	    1547	 1
    1327	    1548	    1549	 1
    1328	    1548	    1550	 1
    1329	    1548	    1551	 1
    1330	    1548	    1552	 1
    1331	    1548	    1553	 1
    1332	    1548	    1554	 1
    1333	    1555	    1556	 1
    1334	    1555	    1557	 1
    1335	    1555	    1558	 1
    1336	    1555	    1559	 1
    1337	    1555	    1560	 1
    1338	    1555	    1561	 1
    1339	    1562	    1563	 1
    1340	    1562	    1564	 1
    1341	    1562	    1565	 1
    1342	    1562	    1566	 1
    1343	    1562	    1567	 1
    1344	    1562	    1568	 1
    1345	    1569	    1570	 1
    1346	    1569	    1571	 1
    1347	    1569	    1572	 1
    1348	    1569	    1573	 1
    1349	    1569	    1574	 1
    1350	    1569	    1575	 1
    1351	    1576	    1577	 1
    1352	    1576	    1578	 1
    1353	    1576	    1579	 1
    1354	    1576	    1580	 1
    1355	    1576	    1581	 1
    1356	    1576	    1582	 1
    1357	    1583	    1584	 1
    1358	    1583	    1585	 1
    1359	    1583	    1586	 1
    1360	    1583	    1587	 1
    1361	    1583	    1588	 1
    1362	    1583	    1589	 1
    1363	    1590	    1591	 1
    1364	    1590	    1592	 1
    1365	    1590	    1593	 1
    1366	    1590	    1594	 1
    1367	    1590	    1595	 1
    1368	    1590	    1596	 1
    1369	    1597	    1598	 1
    1370	    1597	    1599	 1
    1371	    1597	    1600	 1
    1372	    1597	    1601	 1
    1373	    1597	    1602	 1
    1374	    1597	    1603	 1
    1375	    1604	    1605	 1
    1376	    1604	    1606	 1
    1377	    1604	    1607	 1
    1378	    1604	    1608	 1
    1379	    1604	    1609	 1
    1380	    1604	    1610	 1
    1381	    1611	    1612	 1
    1382	    1611	    1613	 1
    1383	    1611	    1614	 1
    1384	    1611	    1615	 1
    1385	    1611	    1616	 1
    1386	    1611	    1617	 1
    1387	    1618	    1619	 1
    1388	    1618	    1620	 1
    1389	    1618	    1621	 1
    1390	    1618	    1622	 1
    1391	    1618	    1623	 1
    1392	    1618	    1624	 1
    1393	    1625	    1626	 1
    1394	    1625	    1627	 1
    1395	    1625	    1628	 1
    1396	    1625	    1629	 1
    1397	    1625	    1630	 1
    1398	    1625	    1631	 1
    1399	    1632	    1633	 1
    1400	    1632	    1634	 1
    1401	    1632	    1635	 1
    1402	    1632	    1636	 1
    1403	    1632	    1637	 1
    1404	    1632	    1638	 1
    1405	    1639	    1640	 1
    1406	    1639	    1641	 1
    1407	    1639	    1642	 1
    1408	    1639	    1643	 1
    1409	    1639	    1644	 1
    1410	    1639	    1645	 1
    1411	    1646	    1647	 1
    1412	    1646	    1648	 1
    1413	    1646	    1649	 1
    1414	    1646	    1650	 1
    1415	    1646	    1651	 1
    1416	    1646	    1652	 1
    1417	    1653	    1654	 1
    1418	    1653	    1655	 1
    1419	    1653	    1656	 1
    1420	    1653	    1657	 1
    1421	    1653	    1658	 1
    1422	    1653	    1659	 1
    1423	    1660	    1661	 1
    1424	    1660	    1662	 1
    1425	    1660	    1663	 1
    1426	    1660	    1664	 1
    1427	    1660	    1665	 1
    1428	    1660	    1666	 1
    1429	    1667	    1668	 1
    1430	    1667	    1669	 1
    1431	    1667	    1670	 1
    1432	    1667	    1671	 1
    1433	    1667	    1672	 1
    1434	    1667	    1673	 1
    1435	    1674	    1675	 1
    1436	    1674	    1676	 1
    1437	    1674	    1677	 1
    1438	    1674	    1678	 1
    1439	    1674	    1679	 1
    1440	    1674	    1680	 1
    1441	    1681	    1682	 1
    1442	    1681	    1683	 1
    1443	    1681	    1684	 1
    1444	    1681	    1685	 1
    1445	    1681	    1686	 1
    1446	    1681	    1687	 1
    1447	    1688	    1689	 1
    1448	    1688	    1690	 1
    1449	    1688	    1691	 1
    1450	    1688	    1692	 1
    1451	    1688	    1693	 1
    1452	    1688	    1694	 1
    1453	    1695	    1696	 1
    1454	    1695	    1697	 1
    1455	    1695	    1698	 1
    1456	    1695	    1699	 1
    1457	    1695	    1700	 1
    1458	    1695	    1701	 1
    1459	    1702	    1703	 1
    1460	    1702	    1704	 1
    1461	    1702	    1705	 1
    1462	    1702	    1706	 1
    1463	    1702	    1707	 1
    1464	    1702	    1708	 1
    1465	    1709	    1710	 1
    1466	    1709	    1711	 1
    1467	    1709	    1712	 1
    1468	    1709	    1713	 1
    1469	    1709	    1714	 1
    1470	    1709	    1715	 1
    1471	    1716	    1717	 1
    1472	    1716	    1718	 1
    1473	    1716	    1719	 1
    1474	    1716	    1720	 1
    1475	    1716	    1721	 1
    1476	    1716	    1722	 1
    1477	    1723	    1724	 1
    1478	    1723	    1725	 1
    1479	    1723	    1726	 1
    1480	    1723	    1727	 1
    1481	    1723	    1728	 1
    1482	    1723	    1729	 1
    1483	    1730	    1731	 1
    1484	    1730	    1732	 1
    1485	    1730	    1733	 1
    1486	    1730	    1734	 1
    1487	    1730	    1735	 1
    1488	    1730	    1736	 1
    1489	    1737	    1738	 1
    1490	    1737	    1739	 1
    1491	    1737	    1740	 1
    1492	    1737	    1741	 1
    1493	    1737	    1742	 1
    1494	    1737	    1743	 1
    1495	    1744	    1745	 1
    1496	    1744	    1746	 1
    1497	    1744	    1747	 1
    1498	    1744	    1748	 1
    1499	    1744	    1749	 1
    1500	    1744	    1750	 1
    1501	    1751	    1752	 1
    1502	    1751	    1753	 1
    1503	    1751	    1754	 1
    1504	    1751	    1755	 1
    1505	    1751	    1756	 1
    1506	    1751	    1757	 1
    1507	    1758	    1759	 1
    1508	    1758	    1760	 1
    1509	    1758	    1761	 1
    1510	    1758	    1762	 1
    1511	    1758	    1763	 1
    1512	    1758	    1764	 1
    1513	    1765	    1766	 1
    1514	    1765	    1767	 1
    1515	    1765	    1768	 1
    1516	    1765	    1769	 1
    1517	    1765	    1770	 1
    1518	    1765	    1771	 1
    1519	    1772	    1773	 1
    1520	    1772	    1774	 1
    1521	    1772	    1775	 1
    1522	    1772	    1776	 1
    1523	    1772	    1777	 1
    1524	    1772	    1778	 1
    1525	    1779	    1780	 1
    1526	    1779	    1781	 1
    1527	    1779	    1782	 1
    1528	    1779	    1783	 1
    1529	    1779	    1784	 1
    1530	    1779	    1785	 1
    1531	    1786	    1787	 1
    1532	    1786	    1788	 1
    1533	    1786	    1789	 1
    1534	    1786	    1790	 1
    1535	    1786	    1791	 1
    1536	    1786	    1792	 1
    1537	    1793	    1794	 1
    1538	    1793	    1795	 1
    1539	    1793	    1796	 1
    1540	    1793	    1797	 1
    1541	    1793	    1798	 1
    1542	    1793	    1799	 1
    1543	    1800	    1801	 1
    1544	    1800	    1802	 1
    1545	    1800	    1803	 1
    1546	    1800	    1804	 1
    1547	    1800	    1805	 1
    1548	    1800	    1806	 1
    1549	    1807	    1808	 1
    1550	    1807	    1809	 1
    1551	    1807	    1810	 1
    1552	    1807	    1811	 1
    1553	    1807	    1812	 1
    1554	    1807	    1813	 1
    1555	    1814	    1815	 1
    1556	    1814	    1816	 1
    1557	    1814	    1817	 1
    1558	    1814	    1818	 1
    1559	    1814	    1819	 1
    1560	    1814	    1820	 1
    1561	    1821	    1822	 1
    1562	    1821	    1823	 1
    1563	    1821	    1824	 1
    1564	    1821	    1825	 1
    1565	    1821	    1826	 1
    1566	    1821	    1827	 1
    1567	    1828	    1829	 1
    1568	    1828	    1830	 1
    1569	    1828	    1831	 1
    1570	    1828	    1832	 1
    1571	    1828	    1833	 1
    1572	    1828	    1834	 1
    1573	    1835	    1836	 1
    1574	    1835	    1837	 1
    1575	    1835	    1838	 1
    1576	    1835	    1839	 1
    1577	    1835	    1840	 1
    1578	    1835	    1841	 1
    1579	    1842	    1843	 1
    1580	    1842	    1844	 1
    1581	    1842	    1845	 1
    1582	    1842	    1846	 1
    1583	    1842	    1847	 1
    1584	    1842	    1848	 1
    1585	    1849	    1850	 1
    1586	    1849	    1851	 1
    1587	    1849	    1852	 1
    1588	    1849	    1853	 1
    1589	    1849	    1854	 1
    1590	    1849	    1855	 1
    1591	    1856	    1857	 1
    1592	    1856	    1858	 1
    1593	    1856	    1859	 1
    1594	    1856	    1860	 1
    1595	    1856	    1861	 1
    1596	    1856	    1862	 1
    1597	    1863	    1864	 1
    1598	    1863	    1865	 1
    1599	    1863	    1866	 1
    1600	    1863	    1867	 1
    1601	    1863	    1868	 1
    1602	    1863	    1869	 1
    1603	    1870	    1871	 1
    1604	    1870	    1872	 1
    1605	    1870	    1873	 1
    1606	    1870	    1874	 1
    1607	    1870	    1875	 1
    1608	    1870	    1876	 1
    1609	    1877	    1878	 1
    1610	    1877	    1879	 1
    1611	    1877	    1880	 1
    1612	    1877	    1881	 1
    1613	    1877	    1882	 1
    1614	    1877	    1883	 1
    1615	    1884	    1885	 1
    1616	    1884	    1886	 1
    1617	    1884	    1887	 1
    1618	    1884	    1888	 1
    1619	    1884	    1889	 1
    1620	    1884	    1890	 1
    1621	    1891	    1892	 1
    1622	    1891	    1893	 1
    1623	    1891	    1894	 1
    1624	    1891	    1895	 1
    1625	    1891	    1896	 1
    1626	    1891	    1897	 1
    1627	    1898	    1899	 1
    1628	    1898	    1900	 1
    1629	    1898	    1901	 1
    1630	    1898	    1902	 1
    1631	    1898	    1903	 1
    1632	    1898	    1904	 1
    1633	    1905	    1906	 1
    1634	    1905	    1907	 1
    1635	    1905	    1908	 1
    1636	    1905	    1909	 1
    1637	    1905	    1910	 1
    1638	    1905	    1911	 1
    1639	    1912	    1913	 1
    1640	    1912	    1914	 1
    1641	    1912	    1915	 1
    1642	    1912	    1916	 1
    1643	    1912	    1917	 1
    1644	    1912	    1918	 1
    1645	    1919	    1920	 1
    1646	    1919	    1921	 1
    1647	    1919	    1922	 1
    1648	    1919	    1923	 1
    1649	    1919	    1924	 1
    1650	    1919	    1925	 1
    1651	    1926	    1927	 1
    1652	    1926	    1928	 1
    1653	    1926	    1929	 1
    1654	    1926	    1930	 1
    1655	    1926	    1931	 1
    1656	    1926	    1932	 1
    1657	    1933	    1934	 1
    1658	    1933	    1935	 1
    1659	    1933	    1936	 1
    1660	    1933	    1937	 1
    1661	    1933	    1938	 1
    1662	    1933	    1939	 1
    1663	    1940	    1941	 1
    1664	    1940	    1942	 1
    1665	    1940	    1943	 1
    1666	    1940	    1944	 1
    1667	    1940	    1945	 1
    1668	    1940	    1946	 1
    1669	    1947	    1948	 1
    1670	    1947	    1949	 1
    1671	    1947	    1950	 1
    1672	    1947	    1951	 1
    1673	    1947	    1952	 1
    1674	    1947	    1953	 1
    1675	    1954	    1955	 1
    1676	    1954	    1956	 1
    1677	    1954	    1957	 1
    1678	    1954	    1958	 1
    1679	    1954	    1959	 1
    1680	    1954	    1960	 1
    1681	    1961	    1962	 1
    1682	    1961	    1963	 1
    1683	    1961	    1964	 1
    1684	    1961	    1965	 1
    1685	    1961	    1966	 1
    1686	    1961	    1967	 1
    1687	    1968	    1969	 1
    1688	    1968	    1970	 1
    1689	    1968	    1971	 1
    1690	    1968	    1972	 1
    1691	    1968	    1973	 1
    1692	    1968	    1974	 1
    1693	    1975	    1976	 1
    1694	    1975	    1977	 1
    1695	    1975	    1978	 1
    1696	    1975	    1979	 1
    1697	    1975	    1980	 1
    1698	    1975	    1981	 1
    1699	    1982	    1983	 1
    1700	    1982	    1984	 1
    1701	    1982	    1985	 1
    1702	    1982	    1986	 1
    1703	    1982	    1987	 1
    1704	    1982	    1988	 1
    1705	    1989	    1990	 1
    1706	    1989	    1991	 1
    1707	    1989	    1992	 1
    1708	    1989	    1993	 1
    1709	    1989	    1994	 1
    1710	    1989	    1995	 1
    1711	    1996	    1997	 1
    1712	    1996	    1998	 1
    1713	    1996	    1999	 1
    1714	    1996	    2000	 1
    1715	    1996	    2001	 1
    1716	    1996	    2002	 1
    1717	    2003	    2004	 1
    1718	    2003	    2005	 1
    1719	    2003	    2006	 1
    1720	    2003	    2007	 1
    1721	    2003	    2008	 1
    1722	    2003	    2009	 1
    1723	    2010	    2011	 1
    1724	    2010	    2012	 1
    1725	    2010	    2013	 1
    1726	    2010	    2014	 1
    1727	    2010	    2015	 1
    1728	    2010	    2016	 1
    1729	    2017	    2018	 1
    1730	    2017	    2019	 1
    1731	    2017	    2020	 1
    1732	    2017	    2021	 1
    1733	    2017	    2022	 1
    1734	    2017	    2023	 1
    1735	    2024	    2025	 1
    1736	    2024	    2026	 1
    1737	    2024	    2027	 1
    1738	    2024	    2028	 1
    1739	    2024	    2029	 1
    1740	    2024	    2030	 1
    1741	    2031	    2032	 1
    1742	    2031	    2033	 1
    1743	    2031	    2034	 1
    1744	    2031	    2035	 1
    1745	    2031	    2036	 1
    1746	    2031	    2037	 1
    1747	    2038	    2039	 1
    1748	    2038	    2040	 1
    1749	    2038	    2041	 1
    1750	    2038	    2042	 1
    1751	    2038	    2043	 1
    1752	    2038	    2044	 1
    1753	    2045	    2046	 1
    1754	    2045	    2047	 1
    1755	    2045	    2048	 1
    1756	    2045	    2049	 1
    1757	    2045	    2050	 1
    1758	    2045	    2051	 1
    1759	    2052	    2053	 1
    1760	    2052	    2054	 1
    1761	    2052	    2055	 1
    1762	    2052	    2056	 1
    1763	    2052	    2057	 1
    1764	    2052	    2058	 1
    1765	    2059	    2060	 1
    1766	    2059	    2061	 1
    1767	    2059	    2062	 1
    1768	    2059	    2063	 1
    1769	    2059	    2064	 1
    1770	    2059	    2065	 1
    1771	    2066	    2067	 1
    1772	    2066	    2068	 1
    1773	    2066	    2069	 1
    1774	    2066	    2070	 1
    1775	    2066	    2071	 1
    1776	    2066	    2072	 1
    1777	    2073	    2074	 1
    1778	    2073	    2075	 1
    1779	    2073	    2076	 1
    1780	    2073	    2077	 1
    1781	    2073	    2078	 1
    1782	    2073	    2079	 1
    1783	    2080	    2081	 1
    1784	    2080	    2082	 1
    1785	    2080	    2083	 1
    1786	    2080	    2084	 1
    1787	    2080	    2085	 1
    1788	    2080	    2086	 1
    1789	    2087	    2088	 1
    1790	    2087	    2089	 1
    1791	    2087	    2090	 1
    1792	    2087	    2091	 1
    1793	    2087	    2092	 1
    1794	    2087	    2093	 1
    1795	    2094	    2095	 1
    1796	    2094	    2096	 1
    1797	    2094	    2097	 1
    1798	    2094	    2098	 1
    1799	    2094	    2099	 1
    1800	    2094	    2100	 1
    1801	    2101	    2102	 1
    1802	    2101	    2103	 1
    1803	    2101	    2104	 1
    1804	    2101	    2105	 1
    1805	    2101	    2106	 1
    1806	    2101	    2107	 1
    1807	    2108	    2109	 1
    1808	    2108	    2110	 1
    1809	    2108	    2111	 1
    1810	    2108	    2112	 1
    1811	    2108	    2113	 1
    1812	    2108	    2114	 1
    1813	    2115	    2116	 1
    1814	    2115	    2117	 1
    1815	    2115	    2118	 1
    1816	    2115	    2119	 1
    1817	    2115	    2120	 1
    1818	    2115	    2121	 1
    1819	    2122	    2123	 1
    1820	    2122	    2124	 1
    1821	    2122	    2125	 1
    1822	    2122	    2126	 1
    1823	    2122	    2127	 1
    1824	    2122	    2128	 1
    1825	    2129	    2130	 1
    1826	    2129	    2131	 1
    1827	    2129	    2132	 1
    1828	    2129	    2133	 1
    1829	    2129	    2134	 1
    1830	    2129	    2135	 1
    1831	    2136	    2137	 1
    1832	    2136	    2138	 1
    1833	    2136	    2139	 1
    1834	    2136	    2140	 1
    1835	    2136	    2141	 1
    1836	    2136	    2142	 1
    1837	    2143	    2144	 1
    1838	    2143	    2145	 1
    1839	    2143	    2146	 1
    1840	    2143	    2147	 1
    1841	    2143	    2148	 1
    1842	    2143	    2149	 1
    1843	    2150	    2151	 1
    1844	    2150	    2152	 1
    1845	    2150	    2153	 1
    1846	    2150	    2154	 1
    1847	    2150	    2155	 1
    1848	    2150	    2156	 1
    1849	    2157	    2158	 1
    1850	    2157	    2159	 1
    1851	    2157	    2160	 1
    1852	    2157	    2161	 1
    1853	    2157	    2162	 1
    1854	    2157	    2163	 1
    1855	    2164	    2165	 1
    1856	    2164	    2166	 1
    1857	    2164	    2167	 1
    1858	    2164	    2168	 1
    1859	    2164	    2169	 1
    1860	    2164	    2170	 1
    1861	    2171	    2172	 1
    1862	    2171	    2173	 1
    1863	    2171	    2174	 1
    1864	    2171	    2175	 1
    1865	    2171	    2176	 1
    1866	    2171	    2177	 1
    1867	    2178	    2179	 1
    1868	    2178	    2180	 1
    1869	    2178	    2181	 1
    1870	    2178	    2182	 1
    1871	    2178	    2183	 1
    1872	    2178	    2184	 1
    1873	    2185	    2186	 1
    1874	    2185	    2187	 1
    1875	    2185	    2188	 1
    1876	    2185	    2189	 1
    1877	    2185	    2190	 1
    1878	    2185	    2191	 1
    1879	    2192	    2193	 1
    1880	    2192	    2194	 1
    1881	    2192	    2195	 1
    1882	    2192	    2196	 1
    1883	    2192	    2197	 1
    1884	    2192	    2198	 1
    1885	    2199	    2200	 1
    1886	    2199	    2201	 1
    1887	    2199	    2202	 1
    1888	    2199	    2203	 1
    1889	    2199	    2204	 1
    1890	    2199	    2205	 1
    1891	    2206	    2207	 1
    1892	    2206	    2208	 1
    1893	    2206	    2209	 1
    1894	    2206	    2210	 1
    1895	    2206	    2211	 1
    1896	    2206	    2212	 1
    1897	    2213	    2214	 1
    1898	    2213	    2215	 1
    1899	    2213	    2216	 1
    1900	    2213	    2217	 1
    1901	    2213	    2218	 1
    1902	    2213	    2219	 1
    1903	    2220	    2221	 1
    1904	    2220	    2222	 1
    1905	    2220	    2223	 1
    1906	    2220	    2224	 1
    1907	    2220	    2225	 1
    1908	    2220	    2226	 1
    1909	    2227	    2228	 1
    1910	    2227	    2229	 1
    1911	    2227	    2230	 1
    1912	    2227	    2231	 1
    1913	    2227	    2232	 1
    1914	    2227	    2233	 1
    1915	    2234	    2235	 1
    1916	    2234	    2236	 1
    1917	    2234	    2237	 1
    1918	    2234	    2238	 1
    1919	    2234	    2239	 1
    1920	    2234	    2240	 1
    1921	    2241	    2242	 1
    1922	    2241	    2243	 1
    1923	    2241	    2244	 1
    1924	    2241	    2245	 1
    1925	    2241	    2246	 1
    1926	    2241	    2247	 1
    1927	    2248	    2249	 1
    1928	    2248	    2250	 1
    1929	    2248	    2251	 1
    1930	    2248	    2252	 1
    1931	    2248	    2253	 1
    1932	    2248	    2254	 1
    1933	    2255	    2256	 1
    1934	    2255	    2257	 1
    1935	    2255	    2258	 1
    1936	    2255	    2259	 1
    1937	    2255	    2260	 1
    1938	    2255	    2261	 1
    1939	    2262	    2263	 1
    1940	    2262	    2264	 1
    1941	    2262	    2265	 1
    1942	    2262	    2266	 1
    1943	    2262	    2267	 1
    1944	    2262	    2268	 1
    1945	    2269	    2270	 1
    1946	    2269	    2271	 1
    1947	    2269	    2272	 1
    1948	    2269	    2273	 1
    1949	    2269	    2274	 1
    1950	    2269	    2275	 1
    1951	    2276	    2277	 1
    1952	    2276	    2278	 1
    1953	    2276	    2279	 1
    1954	    2276	    2280	 1
    1955	    2276	    2281	 1
    1956	    2276	    2282	 1
    1957	    2283	    2284	 1
    1958	    2283	    2285	 1
    1959	    2283	    2286	 1
    1960	    2283	    2287	 1
    1961	    2283	    2288	 1
    1962	    2283	    2289	 1
    1963	    2290	    2291	 1
    1964	    2290	    2292	 1
    1965	    2290	    2293	 1
    1966	    2290	    2294	 1
    1967	    2290	    2295	 1
    1968	    2290	    2296	 1
    1969	    2297	    2298	 1
    1970	    2297	    2299	 1
    1971	    2297	    2300	 1
    1972	    2297	    2301	 1
    1973	    2297	    2302	 1
    1974	    2297	    2303	 1
    1975	    2304	    2305	 1
    1976	    2304	    2306	 1
    1977	    2304	    2307	 1
    1978	    2304	    2308	 1
    1979	    2304	    2309	 1
    1980	    2304	    2310	 1
    1981	    2311	    2312	 1
    1982	    2311	    2313	 1
    1983	    2311	    2314	 1
    1984	    2311	    2315	 1
    1985	    2311	    2316	 1
    1986	    2311	    2317	 1
    1987	    2318	    2319	 1
    1988	    2318	    2320	 1
    1989	    2318	    2321	 1
    1990	    2318	    2322	 1
    1991	    2318	    2323	 1
    1992	    2318	    2324	 1
    1993	    2325	    2326	 1
    1994	    2325	    2327	 1
    1995	    2325	    2328	 1
    1996	    2325	    2329	 1
    1997	    2325	    2330	 1
    1998	    2325	    2331	 1
    1999	    2332	    2333	 1
    2000	    2332	    2334	 1
    2001	    2332	    2335	 1
    2002	    2332	    2336	 1
    2003	    2332	    2337	 1
    2004	    2332	    2338	 1
    2005	    2339	    2340	 1
    2006	    2339	    2341	 1
    2007	    2339	    2342	 1
    2008	    2339	    2343	 1
    2009	    2339	    2344	 1
    2010	    2339	    2345	 1
    2011	    2346	    2347	 1
    2012	    2346	    2348	 1
    2013	    2346	    2349	 1
    2014	    2346	    2350	 1
    2015	    2346	    2351	 1
    2016	    2346	    2352	 1
    2017	    2353	    2354	 1
    2018	    2353	    2355	 1
    2019	    2353	    2356	 1
    2020	    2353	    2357	 1
    2021	    2353	    2358	 1
    2022	    2353	    2359	 1
    2023	    2360	    2361	 1
    2024	    2360	    2362	 1
    2025	    2360	    2363	 1
    2026	    2360	    2364	 1
    2027	    2360	    2365	 1
    2028	    2360	    2366	 1
    2029	    2367	    2368	 1
    2030	    2367	    2369	 1
    2031	    2367	    2370	 1
    2032	    2367	    2371	 1
    2033	    2367	    2372	 1
    2034	    2367	    2373	 1
    2035	    2374	    2375	 1
    2036	    2374	    2376	 1
    2037	    2374	    2377	 1
    2038	    2374	    2378	 1
    2039	    2374	    2379	 1
    2040	    2374	    2380	 1
    2041	    2381	    2382	 1
    2042	    2381	    2383	 1
    2043	    2381	    2384	 1
    2044	    2381	    2385	 1
    2045	    2381	    2386	 1
    2046	    2381	    2387	 1
    2047	    2388	    2389	 1
    2048	    2388	    2390	 1
    2049	    2388	    2391	 1
    2050	    2388	    2392	 1
    2051	    2388	    2393	 1
    2052	    2388	    2394	 1
    2053	    2395	    2396	 1
    2054	    2395	    2397	 1
    2055	    2395	    2398	 1
    2056	    2395	    2399	 1
    2057	    2395	    2400	 1
    2058	    2395	    2401	 1
    2059	    2402	    2403	 1
    2060	    2402	    2404	 1
    2061	    2402	    2405	 1
    2062	    2402	    2406	 1
    2063	    2402	    2407	 1
    2064	    2402	    2408	 1
    2065	    2409	    2410	 1
    2066	    2409	    2411	 1
    2067	    2409	    2412	 1
    2068	    2409	    2413	 1
    2069	    2409	    2414	 1
    2070	    2409	    2415	 1
    2071	    2416	    2417	 1
    2072	    2416	    2418	 1
    2073	    2416	    2419	 1
    2074	    2416	    2420	 1
    2075	    2416	    2421	 1
    2076	    2416	    2422	 1
    2077	    2423	    2424	 1
    2078	    2423	    2425	 1
    2079	    2423	    2426	 1
    2080	    2423	    2427	 1
    2081	    2423	    2428	 1
    2082	    2423	    2429	 1
    2083	    2430	    2431	 1
    2084	    2430	    2432	 1
    2085	    2430	    2433	 1
    2086	    2430	    2434	 1
    2087	    2430	    2435	 1
    2088	    2430	    2436	 1
    2089	    2437	    2438	 1
    2090	    2437	    2439	 1
    2091	    2437	    2440	 1
    2092	    2437	    2441	 1
    2093	    2437	    2442	 1
    2094	    2437	    2443	 1
    2095	    2444	    2445	 1
    2096	    2444	    2446	 1
    2097	    2444	    2447	 1
    2098	    2444	    2448	 1
    2099	    2444	    2449	 1
    2100	    2444	    2450	 1
    2101	    2451	    2452	 1
    2102	    2451	    2453	 1
    2103	    2451	    2454	 1
    2104	    2451	    2455	 1
    2105	    2451	    2456	 1
    2106	    2451	    2457	 1
    2107	    2458	    2459	 1
    2108	    2458	    2460	 1
    2109	    2458	    2461	 1
    2110	    2458	    2462	 1
    2111	    2458	    2463	 1
    2112	    2458	    2464	 1
    2113	    2465	    2466	 1
    2114	    2465	    2467	 1
    2115	    2465	    2468	 1
    2116	    2465	    2469	 1
    2117	    2465	    2470	 1
    2118	    2465	    2471	 1
    2119	    2472	    2473	 1
    2120	    2472	    2474	 1
    2121	    2472	    2475	 1
    2122	    2472	    2476	 1
    2123	    2472	    2477	 1
    2124	    2472	    2478	 1
    2125	    2479	    2480	 1
    2126	    2479	    2481	 1
    2127	    2479	    2482	 1
    2128	    2479	    2483	 1
    2129	    2479	    2484	 1
    2130	    2479	    2485	 1
    2131	    2486	    2487	 1
    2132	    2486	    2488	 1
    2133	    2486	    2489	 1
    2134	    2486	    2490	 1
    2135	    2486	    2491	 1
    2136	    2486	    2492	 1
    2137	    2493	    2494	 1
    2138	    2493	    2495	 1
    2139	    2493	    2496	 1
    2140	    2493	    2497	 1
    2141	    2493	    2498	 1
    2142	    2493	    2499	 1
    2143	    2500	    2501	 1
    2144	    2500	    2502	 1
    2145	    2500	    2503	 1
    2146	    2500	    2504	 1
    2147	    2500	    2505	 1
    2148	    2500	    2506	 1
    2149	    2507	    2508	 1
    2150	    2507	    2509	 1
    2151	    2507	    2510	 1
    2152	    2507	    2511	 1
    2153	    2507	    2512	 1
    2154	    2507	    2513	 1
    2155	    2514	    2515	 1
    2156	    2514	    2516	 1
    2157	    2514	    2517	 1
    2158	    2514	    2518	 1
    2159	    2514	    2519	 1
    2160	    2514	    2520	 1
    2161	    2521	    2522	 1
    2162	    2521	    2523	 1
    2163	    2521	    2524	 1
    2164	    2521	    2525	 1
    2165	    2521	    2526	 1
    2166	    2521	    2527	 1
    2167	    2528	    2529	 1
    2168	    2528	    2530	 1
    2169	    2528	    2531	 1
    2170	    2528	    2532	 1
    2171	    2528	    2533	 1
    2172	    2528	    2534	 1
    2173	    2535	    2536	 1
    2174	    2535	    2537	 1
    2175	    2535	    2538	 1
    2176	    2535	    2539	 1
    2177	    2535	    2540	 1
    2178	    2535	    2541	 1
    2179	    2542	    2543	 1
    2180	    2542	    2544	 1
    2181	    2542	    2545	 1
    2182	    2542	    2546	 1
    2183	    2542	    2547	 1
    2184	    2542	    2548	 1
    2185	    2549	    2550	 1
    2186	    2549	    2551	 1
    2187	    2549	    2552	 1
    2188	    2549	    2553	 1
    2189	    2549	    2554	 1
    2190	    2549	    2555	 1
    2191	    2556	    2557	 1
    2192	    2556	    2558	 1
    2193	    2556	    2559	 1
    2194	    2556	    2560	 1
    2195	    2556	    2561	 1
    2196	    2556	    2562	 1
    2197	    2563	    2564	 1
    2198	    2563	    2565	 1
    2199	    2563	    2566	 1
    2200	    2563	    2567	 1
    2201	    2563	    2568	 1
    2202	    2563	    2569	 1
    2203	    2570	    2571	 1
    2204	    2570	    2572	 1
    2205	    2570	    2573	 1
    2206	    2570	    2574	 1
    2207	    2570	    2575	 1
    2208	    2570	    2576	 1
    2209	    2577	    2578	 1
    2210	    2577	    2579	 1
    2211	    2577	    2580	 1
    2212	    2577	    2581	 1
    2213	    2577	    2582	 1
    2214	    2577	    2583	 1
    2215	    2584	    2585	 1
    2216	    2584	    2586	 1
    2217	    2584	    2587	 1
    2218	    2584	    2588	 1
    2219	    2584	    2589	 1
    2220	    2584	    2590	 1
    2221	    2591	    2592	 1
    2222	    2591	    2593	 1
    2223	    2591	    2594	 1
    2224	    2591	    2595	 1
    2225	    2591	    2596	 1
    2226	    2591	    2597	 1
    2227	    2598	    2599	 1
    2228	    2598	    2600	 1
    2229	    2598	    2601	 1
    2230	    2598	    2602	 1
    2231	    2598	    2603	 1
    2232	    2598	    2604	 1
    2233	    2605	    2606	 1
    2234	    2605	    2607	 1
    2235	    2605	    2608	 1
    2236	    2605	    2609	 1
    2237	    2605	    2610	 1
    2238	    2605	    2611	 1
    2239	    2612	    2613	 1
    2240	    2612	    2614	 1
    2241	    2612	    2615	 1
    2242	    2612	    2616	 1
    2243	    2612	    2617	 1
    2244	    2612	    2618	 1
    2245	    2619	    2620	 1
    2246	    2619	    2621	 1
    2247	    2619	    2622	 1
    2248	    2619	    2623	 1
    2249	    2619	    2624	 1
    2250	    2619	    2625	 1
    2251	    2626	    2627	 1
    2252	    2626	    2628	 1
    2253	    2626	    2629	 1
    2254	    2626	    2630	 1
    2255	    2626	    2631	 1
    2256	    2626	    2632	 1
    2257	    2633	    2634	 1
    2258	    2633	    2635	 1
    2259	    2633	    2636	 1
    2260	    2633	    2637	 1
    2261	    2633	    2638	 1
    2262	    2633	    2639	 1
    2263	    2640	    2641	 1
    2264	    2640	    2642	 1
    2265	    2640	    2643	 1
    2266	    2640	    2644	 1
    2267	    2640	    2645	 1
    2268	    2640	    2646	 1
    2269	    2647	    2648	 1
    2270	    2647	    2649	 1
    2271	    2647	    2650	 1
    2272	    2647	    2651	 1
    2273	    2647	    2652	 1
    2274	    2647	    2653	 1
    2275	    2654	    2655	 1
    2276	    2654	    2656	 1
    2277	    2654	    2657	 1
    2278	    2654	    2658	 1
    2279	    2654	    2659	 1
    2280	    2654	    2660	 1
    2281	    2661	    2662	 1
    2282	    2661	    2663	 1
    2283	    2661	    2664	 1
    2284	    2661	    2665	 1
    2285	    2661	    2666	 1
    2286	    2661	    2667	 1
    2287	    2668	    2669	 1
    2288	    2668	    2670	 1
    2289	    2668	    2671	 1
    2290	    2668	    2672	 1
    2291	    2668	    2673	 1
    2292	    2668	    2674	 1
    2293	    2675	    2676	 1
    2294	    2675	    2677	 1
    2295	    2675	    2678	 1
    2296	    2675	    2679	 1
    2297	    2675	    2680	 1
    2298	    2675	    2681	 1
    2299	    2682	    2683	 1
    2300	    2682	    2684	 1
    2301	    2682	    2685	 1
    2302	    2682	    2686	 1
    2303	    2682	    2687	 1
    2304	    2682	    2688	 1
    2305	    2689	    2690	 1
    2306	    2689	    2691	 1
    2307	    2689	    2692	 1
    2308	    2689	    2693	 1
    2309	    2689	    2694	 1
    2310	    2689	    2695	 1
    2311	    2696	    2697	 1
    2312	    2696	    2698	 1
    2313	    2696	    2699	 1
    2314	    2696	    2700	 1
    2315	    2696	    2701	 1
    2316	    2696	    2702	 1
    2317	    2703	    2704	 1
    2318	    2703	    2705	 1
    2319	    2703	    2706	 1
    2320	    2703	    2707	 1
    2321	    2703	    2708	 1
    2322	    2703	    2709	 1
    2323	    2710	    2711	 1
    2324	    2710	    2712	 1
    2325	    2710	    2713	 1
    2326	    2710	    2714	 1
    2327	    2710	    2715	 1
    2328	    2710	    2716	 1
    2329	    2717	    2718	 1
    2330	    2717	    2719	 1
    2331	    2717	    2720	 1
    2332	    2717	    2721	 1
    2333	    2717	    2722	 1
    2334	    2717	    2723	 1
    2335	    2724	    2725	 1
    2336	    2724	    2726	 1
    2337	    2724	    2727	 1
    2338	    2724	    2728	 1
    2339	    2724	    2729	 1
    2340	    2724	    2730	 1
    2341	    2731	    2732	 1
    2342	    2731	    2733	 1
    2343	    2731	    2734	 1
    2344	    2731	    2735	 1
    2345	    2731	    2736	 1
    2346	    2731	    2737	 1
    2347	    2738	    2739	 1
    2348	    2738	    2740	 1
    2349	    2738	    2741	 1
    2350	    2738	    2742	 1
    2351	    2738	    2743	 1
    2352	    2738	    2744	 1
    2353	    2745	    2746	 1
    2354	    2745	    2747	 1
    2355	    2745	    2748	 1
    2356	    2745	    2749	 1
    2357	    2745	    2750	 1
    2358	    2745	    2751	 1
    2359	    2752	    2753	 1
    2360	    2752	    2754	 1
    2361	    2752	    2755	 1
    2362	    2752	    2756	 1
    2363	    2752	    2757	 1
    2364	    2752	    2758	 1
    2365	    2759	    2760	 1
    2366	    2759	    2761	 1
    2367	    2759	    2762	 1
    2368	    2759	    2763	 1
    2369	    2759	    2764	 1
    2370	    2759	    2765	 1
    2371	    2766	    2767	 1
    2372	    2766	    2768	 1
    2373	    2766	    2769	 1
    2374	    2766	    2770	 1
    2375	    2766	    2771	 1
    2376	    2766	    2772	 1
    2377	    2773	    2774	 1
    2378	    2773	    2775	 1
    2379	    2773	    2776	 1
    2380	    2773	    2777	 1
    2381	    2773	    2778	 1
    2382	    2773	    2779	 1
    2383	    2780	    2781	 1
    2384	    2780	    2782	 1
    2385	    2780	    2783	 1
    2386	    2780	    2784	 1
    2387	    2780	    2785	 1
    2388	    2780	    2786	 1
    2389	    2787	    2788	 1
    2390	    2787	    2789	 1
    2391	    2787	    2790	 1
    2392	    2787	    2791	 1
    2393	    2787	    2792	 1
    2394	    2787	    2793	 1
    2395	    2794	    2795	 1
    2396	    2794	    2796	 1
    2397	    2794	    2797	 1
    2398	    2794	    2798	 1
    2399	    2794	    2799	 1
    2400	    2794	    2800	 1
    2401	     747	    1640	 1
    2402	     661	    1103	 1
    2403	    2349	    2733	 1
    2404	    1131	    1977	 1
    2405	     417	     891	 1
    2406	    1915	    2063	 1
    2407	     667	    1178	 1
    2408	     783	    1742	 1
    2409	      18	    2554	 1
@<TRIPOS>FF_PBC
    v1.0	       1	     -20	     -20	     -20	      20	      20	      20
18000
@<TRIPOS>MOLECULE
Nanorod
2800	2411
SMALL
NO_CHARGES
@<TRIPOS>ATOM
     1	1	-19.8128	-7.25186	 18.9549	N.3
     2	2	-19.1712	-6.88768	 19.7775	C.1
     3	2	-18.7111	 -7.1954	 19.0177	C.1
     4	2	-20.5004	-6.40541	 18.7772	C.1
     5	2	-20.0403	-6.71312	 18.0174	C.1
     6	2	-20.4569	-8.00092	 19.4497	C.1
     7	2	-19.9968	-8.30863	 18.6899	C.1
     8	1	 2.90038	 12.1643	 7.53575	N.3
     9	2	 1.96446	 12.7466	  7.6125	C.1
    10	2	 2.54434	 12.8229	 8.34838	C.1
    11	2	  3.3228	 12.4914	 6.56859	C.1
    12	2	 3.90267	 12.5678	 7.30447	C.1
    13	2	 2.54406	 11.1404	 7.32235	C.1
    14	2	 3.12394	 11.2167	 8.05823	C.1
    15	1	 7.82446	 9.29995	-15.1011	N.3
    16	2	 6.96238	 9.87768	-14.7217	C.1
    17	2	 7.71841	 10.3889	-14.9468	C.1
    18	2	 7.38998	 8.71314	-15.9304	C.1
    19	2	 8.14601	 9.22437	-16.1555	C.1
    20	2	 7.98698	 8.54218	-14.3135	C.1
    21	2	   8.743	 9.05341	-14.5386	C.1
    22	1	 6.15731	-18.3882	-16.9374	N.3
    23	2	 6.25953	-18.1314	-18.0072	C.1
    24	2	 6.72193	 -17.567	-17.4146	C.1
    25	2	 6.45591	-19.4514	-16.9031	C.1
    26	2	  6.9183	 -18.887	-16.3105	C.1
    27	2	  5.0629	-18.4283	-16.7907	C.1
    28	2	  5.5253	-17.8639	-16.1981	C.1
    29	1	-6.61476	-14.5744	-14.5998	N.3
    30	2	-6.63916	-13.4705	 -14.642	C.1
    31	2	-6.08642	 -13.833	-13.9736	C.1
    32	2	-6.35151	-14.8609	-15.6339	C.1
    33	2	-5.79877	-15.2234	-14.9656	C.1
    34	2	-7.68272	 -14.848	 -14.526	C.1
    35	2	-7.12999	-15.2105	-13.8576	C.1
    36	1	 6.54704	-12.6007	 5.21818	N.3
    37	2	  5.8265	-12.4094	 4.40263	C.1
    38	2	 5.81336	-13.2823	 4.75122	C.1
    39	2	 6.32277	-11.8004	 5.94627	C.1
    40	2	 6.30964	-12.6733	 6.29485	C.1
    41	2	 7.51157	 -12.283	 4.78276	C.1
    42	2	 7.49843	-13.1558	 5.13135	C.1
    43	1	 8.67587	-0.775484	-19.0788	N.3
    44	2	 8.19729	-0.380991	-18.1644	C.1
    45	2	  8.8818	-1.00851	-18.0186	C.1
    46	2	 8.98344	0.138882	-19.6175	C.1
    47	2	 9.66795	-0.48864	-19.4717	C.1
    48	2	 7.82011	-1.14306	-19.6733	C.1
    49	2	 8.50462	-1.77058	-19.5275	C.1
    50	1	-9.14567	 4.82909	 14.7384	N.3
    51	2	-10.0257	 4.24165	 15.0568	C.1
    52	2	-9.42908	 4.47314	 15.7453	C.1
    53	2	-9.59364	 5.68241	  14.198	C.1
    54	2	-8.99703	  5.9139	 14.8865	C.1
    55	2	-8.71259	 4.21597	 13.9276	C.1
    56	2	-8.11597	 4.44746	 14.6161	C.1
    57	1	-10.4955	  9.7371	-7.84548	N.3
    58	2	-10.5985	 10.8156	-8.06258	C.1
    59	2	-11.3779	 10.3059	-8.18997	C.1
    60	2	-10.0879	 9.72395	-6.81855	C.1
    61	2	-10.8674	 9.21422	-6.94595	C.1
    62	2	-9.63088	 9.43634	-8.46422	C.1
    63	2	-10.4103	 8.92661	-8.59161	C.1
    64	1	 5.30953	-16.9006	-0.112105	N.3
    65	2	 5.32704	-16.2618	-1.01348	C.1
    66	2	  4.6555	-16.9194	 -1.0025	C.1
    67	2	 5.26475	-16.1693	0.714969	C.1
    68	2	 4.59321	 -16.827	0.725947	C.1
    69	2	 6.34409	-17.2843	-0.0542734	C.1
    70	2	 5.67255	-17.9419	-0.0432948	C.1
    71	1	 4.10172	-19.8412	  17.623	N.3
    72	2	 3.79133	-18.9903	 18.2558	C.1
    73	2	 4.71931	-19.0841	  18.139	C.1
    74	2	 3.52403	-19.6887	 16.6935	C.1
    75	2	 4.45201	-19.7826	 16.5767	C.1
    76	2	 3.59782	-20.7039	 18.0949	C.1
    77	2	  4.5258	-20.7977	 17.9781	C.1
    78	1	-14.2261	 4.08966	-2.32259	N.3
    79	2	-14.3818	 3.54651	-1.37303	C.1
    80	2	-14.3603	 4.48334	-1.29891	C.1
    81	2	 -15.021	 3.68804	-2.97657	C.1
    82	2	-14.9995	 4.62487	-2.90245	C.1
    83	2	-13.3078	 3.62917	-2.72934	C.1
    84	2	-13.2863	   4.566	-2.65522	C.1
    85	1	 9.20545	 15.9801	 -9.5253	N.3
    86	2	 9.54034	 15.2434	-10.2776	C.1
    87	2	 8.74685	    15.7	-10.4908	C.1
    88	2	 10.0943	 16.6217	-9.38693	C.1
    89	2	 9.30082	 17.0783	-9.60008	C.1
    90	2	 9.17194	 15.3902	-8.59161	C.1
    91	2	 8.37845	 15.8469	-8.80476	C.1
    92	1	 6.16811	 13.3413	 8.70971	N.3
    93	2	 6.51084	 12.8278	 9.62608	C.1
    94	2	 7.18237	 13.2741	 9.14291	C.1
    95	2	 5.34488	 13.9828	 9.07251	C.1
    96	2	  6.0164	 14.4291	 8.58934	C.1
    97	2	 5.64132	 12.5438	 8.15528	C.1
    98	2	 6.31284	 12.9901	 7.67211	C.1
    99	1	 19.2214	 15.5048	  -14.12	N.3
   100	2	  19.944	 14.9377	-13.5058	C.1
   101	2	 19.5505	 14.4538	-14.2091	C.1
   102	2	 19.7965	 16.3968	-14.4273	C.1
   103	2	 19.4031	 15.9129	-15.1306	C.1
   104	2	  18.514	 15.9058	 -13.372	C.1
   105	2	 18.1205	 15.4219	-14.0753	C.1
   106	1	-3.51839	 6.87074	 16.9912	N.3
   107	2	-2.51169	 6.49204	 16.7382	C.1
   108	2	 -3.2211	 6.07864	 16.2805	C.1
   109	2	-3.42641	 7.95997	 16.8301	C.1
   110	2	-4.13581	 7.54656	 16.3725	C.1
   111	2	-3.55297	 6.78031	 18.0919	C.1
   112	2	-4.26238	  6.3669	 17.6343	C.1
   113	1	-17.6747	  3.9476	-11.3369	N.3
   114	2	-18.1804	 4.84704	-11.7322	C.1
   115	2	-17.4169	 4.57566	-12.2087	C.1
   116	2	-18.4882	 3.20142	-11.2881	C.1
   117	2	-17.7247	 2.93005	-11.7647	C.1
   118	2	-17.5008	  4.2014	-10.2757	C.1
   119	2	-16.7374	 3.93003	-10.7522	C.1
   120	1	  14.486	-18.7455	 14.2093	N.3
   121	2	 13.5746	-19.3452	 14.0345	C.1
   122	2	 13.4507	-18.4137	 14.0119	C.1
   123	2	 15.1971	-19.1434	  13.463	C.1
   124	2	 15.0733	-18.2119	 13.4404	C.1
   125	2	 14.8721	-19.1453	 15.1643	C.1
   126	2	 14.7483	-18.2138	 15.1417	C.1
   127	1	-13.9454	 1.11253	-0.741755	N.3
   128	2	-13.6006	  2.0321	-0.235412	C.1
   129	2	-14.2684	 2.15953	-0.884601	C.1
   130	2	-14.2265	0.451911	0.0981671	C.1
   131	2	-14.8942	0.579342	-0.551022	C.1
   132	2	-13.0076	0.662437	-1.11424	C.1
   133	2	-13.6754	0.789868	-1.76342	C.1
   134	1	  8.7988	0.325169	 9.53225	N.3
   135	2	  8.3332	 1.28153	  9.2331	C.1
   136	2	 7.83146	0.764036	 9.83646	C.1
   137	2	 9.79689	0.632195	 9.89335	C.1
   138	2	 9.29515	0.114697	 10.4967	C.1
   139	2	 9.01892	-0.161976	 8.56525	C.1
   140	2	 8.51717	-0.679474	 9.16861	C.1
   141	1	 10.1143	-13.5932	 5.71687	N.3
   142	2	 10.3031	-13.2939	 6.76362	C.1
   143	2	 9.43437	-13.6071	 6.58776	C.1
   144	2	 10.9249	-14.3151	 5.51045	C.1
   145	2	 10.0562	-14.6283	 5.33459	C.1
   146	2	 10.4179	-12.7009	 5.14034	C.1
   147	2	 9.54923	 -13.014	 4.96447	C.1
   148	1	 13.8319	   18.31	0.644966	N.3
   149	2	  14.356	 17.5206	0.0765691	C.1
   150	2	 13.7047	  17.213	 0.68054	C.1
   151	2	  13.458	 18.9848	-0.146004	C.1
   152	2	 12.8067	 18.6772	0.457967	C.1
   153	2	 14.6586	  18.886	 1.09838	C.1
   154	2	 14.0073	 18.5784	 1.70235	C.1
   155	1	-11.3198	 -15.032	-18.5007	N.3
   156	2	-10.4929	-14.7981	-17.8061	C.1
   157	2	-11.1638	-14.1423	-17.8642	C.1
   158	2	-11.6624	-16.0257	-18.1602	C.1
   159	2	-12.3332	-15.3699	-18.2184	C.1
   160	2	-10.7979	-15.2558	-19.4485	C.1
   161	2	-11.4687	-14.5999	-19.5067	C.1
   162	1	  18.809	-17.4655	 13.6012	N.3
   163	2	 17.7359	-17.6058	 13.3783	C.1
   164	2	 17.9306	 -16.921	  13.992	C.1
   165	2	 19.2609	-17.3423	 12.6005	C.1
   166	2	 19.4556	-16.6574	 13.2142	C.1
   167	2	 19.1382	-18.4758	 13.9043	C.1
   168	2	 19.3328	 -17.791	  14.518	C.1
   169	1	 12.8049	-12.1062	-17.7703	N.3
   170	2	 13.8269	-12.3074	-17.4018	C.1
   171	2	 13.3575	-13.0611	-17.7102	C.1
   172	2	 12.9591	-11.3093	-18.5201	C.1
   173	2	 12.4896	 -12.063	-18.8284	C.1
   174	2	 12.3329	-11.5713	-16.9266	C.1
   175	2	 11.8634	 -12.325	 -17.235	C.1
   176	1	 4.65755	-7.23885	 19.4008	N.3
   177	2	 5.54913	-6.58792	 19.3532	C.1
   178	2	 4.76161	-6.21365	  19.002	C.1
   179	2	 4.60819	-7.52203	 20.4676	C.1
   180	2	 3.82067	-7.14776	 20.1165	C.1
   181	2	  4.9966	-8.16801	 18.9083	C.1
   182	2	 4.20908	-7.79374	 18.5571	C.1
   183	1	-7.22271	-0.876606	 11.5033	N.3
   184	2	-7.84579	-1.59723	 12.0631	C.1
   185	2	-7.26927	-1.07368	 12.5895	C.1
   186	2	-7.96305	-0.309439	 10.9108	C.1
   187	2	-7.38653	0.214104	 11.4372	C.1
   188	2	-6.72405	-1.50847	 10.7463	C.1
   189	2	-6.14754	-0.984924	 11.2728	C.1
   190	1	 7.13576	-10.9324	 7.17995	N.3
   191	2	 7.27814	-10.3653	 6.24237	C.1
   192	2	 6.87431	-11.2083	 6.14243	C.1
   193	2	 6.58713	-10.2218	  7.8241	C.1
   194	2	  6.1833	-11.0648	 7.72416	C.1
   195	2	 8.14775	-10.9457	 7.62329	C.1
   196	2	 7.74392	-11.7886	 7.52336	C.1
   197	1	-13.4547	-4.05338	-2.85403	N.3
   198	2	 -14.454	-4.38598	-2.51963	C.1
   199	2	-14.0168	-4.96846	-3.11397	C.1
   200	2	-12.9214	-3.86268	-1.90532	C.1
   201	2	-12.4843	-4.44516	-2.49965	C.1
   202	2	-13.6445	-3.03776	-3.24562	C.1
   203	2	-13.2074	-3.62024	-3.83996	C.1
   204	1	-3.79133	 11.8151	-14.0173	N.3
   205	2	-3.07881	 11.9527	 -13.184	C.1
   206	2	-3.12574	 12.6679	-13.7922	C.1
   207	2	 -4.7385	 11.5731	-13.5024	C.1
   208	2	-4.78543	 12.2884	-14.1105	C.1
   209	2	-3.48628	 10.8468	-14.4533	C.1
   210	2	-3.53321	  11.562	-15.0614	C.1
   211	1	-6.11749	  6.7447	  2.7963	N.3
   212	2	-6.75955	 6.73456	  3.6955	C.1
   213	2	-5.88005	 6.43069	 3.82873	C.1
   214	2	-6.20559	 7.78507	 2.43473	C.1
   215	2	 -5.3261	  7.4812	 2.56797	C.1
   216	2	-6.70657	 6.17029	 2.05881	C.1
   217	2	-5.82707	 5.86641	 2.19204	C.1
   218	1	-8.99506	 13.4868	-18.8388	N.3
   219	2	-9.20522	   14.55	-18.6234	C.1
   220	2	-8.31771	 14.2794	-18.4728	C.1
   221	2	-9.35439	 13.3635	-19.8764	C.1
   222	2	-8.46687	 13.0929	-19.7258	C.1
   223	2	-9.75683	 12.9529	-18.2426	C.1
   224	2	-8.86932	 12.6823	 -18.092	C.1
   225	1	  -3.855	-14.1695	 13.3013	N.3
   226	2	-3.70882	-14.1655	 14.3965	C.1
   227	2	-3.36757	-14.9192	 13.9503	C.1
   228	2	-3.42518	-13.2018	 12.9856	C.1
   229	2	-3.08393	-13.9555	 12.5394	C.1
   230	2	-4.94287	-14.0106	  13.191	C.1
   231	2	-4.60162	-14.7643	 12.7448	C.1
   232	1	 3.52611	 -1.7965	 1.95666	N.3
   233	2	 3.35888	-2.50126	 1.12225	C.1
   234	2	 3.09107	-1.61546	0.957233	C.1
   235	2	 4.59867	-1.92803	 2.18728	C.1
   236	2	 4.33086	-1.04222	 2.02226	C.1
   237	2	  3.0225	-2.28892	 2.80799	C.1
   238	2	 2.75469	-1.40311	 2.64297	C.1
   239	1	 6.35749	-3.31498	-2.30746	N.3
   240	2	 7.10715	-2.57812	-1.96693	C.1
   241	2	 7.12626	-2.77219	-2.88648	C.1
   242	2	 5.40497	-2.89678	-1.93507	C.1
   243	2	 5.42409	-3.09084	-2.85462	C.1
   244	2	 6.53168	-4.17894	-1.64106	C.1
   245	2	  6.5508	  -4.373	-2.56061	C.1
   246	1	-2.02997	 2.36493	 12.8974	N.3
   247	2	-2.08018	 2.69691	 13.9501	C.1
   248	2	-2.89562	 2.40753	 13.5827	C.1
   249	2	-1.22498	 1.60815	 12.9093	C.1
   250	2	-2.04041	 1.31877	  12.542	C.1
   251	2	-1.56158	  3.2238	 12.3837	C.1
   252	2	-2.37702	 2.93442	 12.0164	C.1
   253	1	 3.95665	-17.4233	-5.68923	N.3
   254	2	 4.91614	-17.2762	-5.16137	C.1
   255	2	 4.40792	-16.4963	-5.29187	C.1
   256	2	 3.46111	-18.2136	  -5.097	C.1
   257	2	 2.95288	-17.4337	 -5.2275	C.1
   258	2	 4.25504	  -17.95	-6.61358	C.1
   259	2	 3.74681	-17.1701	-6.74408	C.1
   260	1	 2.11965	 15.7737	 2.84721	N.3
   261	2	  1.2365	 16.3295	 3.21052	C.1
   262	2	 1.06858	 15.4454	 2.93886	C.1
   263	2	 2.84397	 15.8816	 3.67461	C.1
   264	2	 2.67605	 14.9975	 3.40295	C.1
   265	2	 2.53037	  16.436	   2.064	C.1
   266	2	 2.36245	  15.552	 1.79234	C.1
   267	1	-14.9769	-14.8018	-12.9605	N.3
   268	2	 -15.856	-15.4702	 -12.924	C.1
   269	2	-15.6318	-15.0595	-12.1087	C.1
   270	2	-15.2214	-14.1078	-13.7848	C.1
   271	2	-14.9972	-13.6971	-12.9696	C.1
   272	2	-14.1897	-15.4434	-13.3957	C.1
   273	2	-13.9655	-15.0327	-12.5804	C.1
   274	1	 8.05147	-3.88034	-14.9613	N.3
   275	2	 7.57292	-4.26901	-14.0444	C.1
   276	2	 8.23492	-4.82349	-14.4157	C.1
   277	2	 8.39563	-2.87461	-14.6598	C.1
   278	2	 9.05763	 -3.4291	-15.0312	C.1
   279	2	 7.19286	-3.66567	-15.6228	C.1
   280	2	 7.85486	-4.22016	-15.9942	C.1
   281	1	-18.8321	 19.7265	-8.71711	N.3
   282	2	 -19.221	 20.7021	-8.37384	C.1
   283	2	-19.7528	 19.9594	-8.15245	C.1
   284	2	-17.8048	 19.7069	-8.31061	C.1
   285	2	-18.3367	 18.9641	-8.08922	C.1
   286	2	-18.6726	 19.8847	-9.79897	C.1
   287	2	-19.2045	 19.1419	-9.57758	C.1
   288	1	-4.84035	-0.105289	 13.4654	N.3
   289	2	-4.06167	-0.674185	 14.0048	C.1
   290	2	-4.12566	0.234549	 14.2365	C.1
   291	2	-5.75472	-0.700439	 13.6403	C.1
   292	2	-5.81871	0.208295	  13.872	C.1
   293	2	-4.60869	-0.304344	 12.4035	C.1
   294	2	-4.67267	 0.60439	 12.6353	C.1
   295	1	-14.5807	 17.7022	-16.3746	N.3
   296	2	-14.2978	 17.0691	-17.2348	C.1
   297	2	-13.6679	 17.1013	-16.5377	C.1
   298	2	-15.5756	 17.3138	-16.0914	C.1
   299	2	-14.9457	 17.3461	-15.3944	C.1
   300	2	-14.8136	 18.6755	 -16.843	C.1
   301	2	-14.1837	 18.7077	 -16.146	C.1
   302	1	 18.8407	-4.00733	-19.1584	N.3
   303	2	 19.6428	-4.06216	-19.9164	C.1
   304	2	 19.9084	-3.73519	-19.0761	C.1
   305	2	 18.4263	-5.03159	-19.1546	C.1
   306	2	  18.692	-4.70462	-18.3143	C.1
   307	2	 18.0545	-3.41869	-19.6646	C.1
   308	2	 18.3202	-3.09172	-18.8243	C.1
   309	1	-5.63085	 15.4894	-10.9593	N.3
   310	2	-6.10643	 16.4687	-11.1482	C.1
   311	2	-6.05484	 15.8988	-11.8939	C.1
   312	2	-6.20374	 15.0915	-10.1024	C.1
   313	2	-6.15215	 14.5215	-10.8481	C.1
   314	2	-4.65975	 15.7629	-10.5087	C.1
   315	2	-4.60817	  15.193	-11.2545	C.1
   316	1	-1.01881	-19.8628	 11.7435	N.3
   317	2	-1.95612	-20.3308	 11.3924	C.1
   318	2	-1.29929	-20.2064	 10.7315	C.1
   319	2	-0.717615	-20.5053	 12.5905	C.1
   320	2	-0.0607816	-20.3809	 11.9297	C.1
   321	2	-1.36794	 -18.939	  12.239	C.1
   322	2	-0.711104	-18.8146	 11.5781	C.1
   323	1	-17.7379	 13.9465	-11.3522	N.3
   324	2	-17.1839	 13.6644	-12.2657	C.1
   325	2	-17.1898	 14.5837	-12.0695	C.1
   326	2	-17.2878	 13.3029	 -10.575	C.1
   327	2	-17.2937	 14.2222	-10.3788	C.1
   328	2	-18.7331	 13.4932	-11.5103	C.1
   329	2	 -18.739	 14.4125	 -11.314	C.1
   330	1	 13.5621	-15.2477	  10.878	N.3
   331	2	 12.6171	-15.0017	  10.361	C.1
   332	2	 13.3244	-15.2616	 9.79901	C.1
   333	2	  13.253	-16.0019	 11.6239	C.1
   334	2	 13.9603	-16.2618	  11.062	C.1
   335	2	 13.7553	-14.3496	  11.492	C.1
   336	2	 14.4626	-14.6095	   10.93	C.1
   337	1	 1.95731	   12.67	-2.46326	N.3
   338	2	 2.07008	 12.1388	-1.50097	C.1
   339	2	 1.55488	 12.9243	-1.46611	C.1
   340	2	 1.57393	 11.8861	-3.14108	C.1
   341	2	 1.05872	 12.6716	-3.10622	C.1
   342	2	 3.00073	 12.8069	-2.80002	C.1
   343	2	 2.48552	 13.5923	-2.76516	C.1
   344	1	 4.18605	 13.5395	-11.9124	N.3
   345	2	 3.37456	 14.0678	-12.4446	C.1
   346	2	 3.90014	 14.6063	-11.8813	C.1
   347	2	 4.73587	 13.0349	-12.7273	C.1
   348	2	 5.26144	 13.5734	-12.1639	C.1
   349	2	 3.65936	 12.7079	-11.4105	C.1
   350	2	 4.18494	 13.2464	-10.8471	C.1
   351	1	-16.8116	-8.16138	 1.01241	N.3
   352	2	-17.3978	-8.78498	 0.31358	C.1
   353	2	-16.4809	-8.98734	0.357178	C.1
   354	2	-17.3615	-8.26459	  1.9652	C.1
   355	2	-16.4446	-8.46696	  2.0088	C.1
   356	2	-17.0508	-7.13103	0.693059	C.1
   357	2	-16.1339	-7.33339	0.736657	C.1
   358	1	-11.7336	 11.2056	 11.7397	N.3
   359	2	-12.7808	 11.0462	 11.4254	C.1
   360	2	-12.1929	 10.3391	 11.2305	C.1
   361	2	 -11.827	 11.4573	 12.8115	C.1
   362	2	-11.2391	 10.7502	 12.6166	C.1
   363	2	-11.4748	 12.1738	 11.2745	C.1
   364	2	-10.8869	 11.4668	 11.0796	C.1
   365	1	 2.00571	-5.81763	-4.77901	N.3
   366	2	 1.90521	-4.72183	-4.87913	C.1
   367	2	 2.76218	-5.06296	-5.06033	C.1
   368	2	 1.19885	 -6.2055	 -5.4266	C.1
   369	2	 2.05582	-6.54664	-5.60779	C.1
   370	2	 1.62763	-6.01385	-3.75949	C.1
   371	2	  2.4846	-6.35498	-3.94069	C.1
   372	1	-13.9046	 3.20177	-6.59923	N.3
   373	2	-14.6203	 2.72972	-5.90213	C.1
   374	2	-14.0374	 2.13601	-6.33957	C.1
   375	2	-13.4124	 3.96902	-5.97478	C.1
   376	2	-12.8296	 3.37531	-6.41222	C.1
   377	2	-14.5555	 3.79714	-7.26462	C.1
   378	2	-13.9726	 3.20343	-7.70206	C.1
   379	1	 14.5802	-2.55886	 -8.5576	N.3
   380	2	  13.519	-2.70127	-8.83029	C.1
   381	2	 13.6731	-2.46391	-7.93391	C.1
   382	2	 14.9373	-1.82798	-9.30539	C.1
   383	2	 15.0914	-1.59063	  -8.409	C.1
   384	2	 15.0532	-3.50335	 -8.8817	C.1
   385	2	 15.2073	  -3.266	-7.98532	C.1
   386	1	 -3.3019	-8.74238	 3.62841	N.3
   387	2	-2.73819	-7.90926	  3.1712	C.1
   388	2	-3.66463	-7.77026	 3.24854	C.1
   389	2	-2.77101	-8.91313	 4.58227	C.1
   390	2	-3.69746	-8.77412	 4.65961	C.1
   391	2	-3.00683	-9.61326	 3.01574	C.1
   392	2	-3.93328	-9.47426	 3.09308	C.1
   393	1	  1.9458	 19.5955	 16.2993	N.3
   394	2	 2.62678	 18.7309	 16.3976	C.1
   395	2	 2.74097	 19.2431	 15.6178	C.1
   396	2	 2.09443	 20.1431	 17.2474	C.1
   397	2	 2.20863	 20.6554	 16.4675	C.1
   398	2	0.944908	  19.144	 16.4227	C.1
   399	2	  1.0591	 19.6562	 15.6428	C.1
   400	1	-3.79298	-0.796329	 17.7255	N.3
   401	2	 -4.1694	-0.291284	 16.8176	C.1
   402	2	-4.49209	-1.16377	 16.9527	C.1
   403	2	 -4.0296	-0.077769	 18.5308	C.1
   404	2	-4.35229	-0.950255	 18.6659	C.1
   405	2	-2.69589	-0.711205	 17.6254	C.1
   406	2	-3.01858	-1.58369	 17.7604	C.1
   407	1	-16.8874	 7.23939	 11.3522	N.3
   408	2	-17.1925	 8.04936	  12.039	C.1
   409	2	-17.8938	 7.64444	 11.5618	C.1
   410	2	-16.3087	 6.56016	 12.0039	C.1
   411	2	-17.0101	 6.15524	 11.5266	C.1
   412	2	-16.1089	 7.71603	 10.7295	C.1
   413	2	-16.8102	  7.3111	 10.2523	C.1
   414	1	-9.09311	-11.9339	 -13.308	N.3
   415	2	 -9.4396	 -11.007	-13.7996	C.1
   416	2	-9.33896	-10.9512	-12.8666	C.1
   417	2	-8.17341	-12.1869	-13.8656	C.1
   418	2	-8.07277	-12.1312	-12.9327	C.1
   419	2	-9.81728	-12.6914	-13.6581	C.1
   420	2	-9.71663	-12.6356	-12.7252	C.1
   421	1	-19.5419	-11.8559	-3.08448	N.3
   422	2	-20.2469	 -12.537	-3.59426	C.1
   423	2	-19.4334	-12.9276	-3.33102	C.1
   424	2	-20.1481	-11.4336	-2.26289	C.1
   425	2	-19.3345	-11.8241	-1.99966	C.1
   426	2	-19.4509	-11.0114	-3.79116	C.1
   427	2	-18.6374	-11.4019	-3.52792	C.1
   428	1	 17.0363	 7.81682	-19.3722	N.3
   429	2	 15.9869	 7.49365	-19.2489	C.1
   430	2	 16.5932	 6.80901	-19.4664	C.1
   431	2	 17.2488	 8.35049	-18.4283	C.1
   432	2	 17.8551	 7.66586	-18.6458	C.1
   433	2	 16.9638	 8.63326	-20.1132	C.1
   434	2	 17.5701	 7.94863	-20.3306	C.1
   435	1	-8.60823	 7.50067	 4.75716	N.3
   436	2	-7.97214	 6.69665	 5.16928	C.1
   437	2	-8.37071	  7.2586	 5.80877	C.1
   438	2	-9.31439	 6.95515	 4.10556	C.1
   439	2	-9.71296	  7.5171	 4.74505	C.1
   440	2	-7.94029	  8.0073	 4.03741	C.1
   441	2	-8.33886	 8.56925	  4.6769	C.1
   442	1	-19.2896	 6.05814	 1.64758	N.3
   443	2	-19.2646	 5.35063	0.799227	C.1
   444	2	 -19.412	 4.96001	 1.64143	C.1
   445	2	-20.0458	 6.80065	 1.33508	C.1
   446	2	-20.1932	 6.41003	 2.17728	C.1
   447	2	-18.3373	 6.60907	 1.54512	C.1
   448	2	-18.4847	 6.21846	 2.38733	C.1
   449	1	-10.8307	 14.8834	-16.4853	N.3
   450	2	-9.73533	 14.7552	-16.5538	C.1
   451	2	-10.0802	 14.7872	  -15.68	C.1
   452	2	-11.2209	 14.0635	-17.1148	C.1
   453	2	-11.5658	 14.0955	 -16.241	C.1
   454	2	-11.0184	 15.7836	-17.0979	C.1
   455	2	-11.3633	 15.8156	-16.2241	C.1
   456	1	-1.72066	 7.35647	-6.25486	N.3
   457	2	-0.841593	 6.73015	 -6.4912	C.1
   458	2	-1.53242	 6.29142	-6.02873	C.1
   459	2	-2.00445	 7.77456	-7.23747	C.1
   460	2	-2.69528	 7.33584	  -6.775	C.1
   461	2	 -1.2797	  8.2228	-5.72961	C.1
   462	2	-1.97053	 7.78407	-5.26714	C.1
   463	1	-9.73131	-5.32354	-3.68942	N.3
   464	2	-9.16655	-4.50957	-3.20014	C.1
   465	2	-9.00536	-5.37001	-2.85771	C.1
   466	2	-9.48994	 -5.1907	-4.75944	C.1
   467	2	-9.32874	-6.05115	-4.41701	C.1
   468	2	-10.7792	 -4.9797	-3.62232	C.1
   469	2	 -10.618	-5.84014	-3.27989	C.1
   470	1	 -1.2664	 5.17817	 7.67744	N.3
   471	2	-1.24947	 4.30983	 6.99437	C.1
   472	2	-0.585336	 4.30827	 7.65959	C.1
   473	2	-2.30612	  5.1852	 8.05134	C.1
   474	2	-1.64198	 5.18364	 8.71656	C.1
   475	2	-1.23982	 6.04183	 6.98879	C.1
   476	2	-0.575681	 6.04027	 7.65401	C.1
   477	1	-6.84095	-10.1218	-5.87899	N.3
   478	2	 -7.7078	-10.7002	 -5.5116	C.1
   479	2	-7.80399	-10.3404	-6.37466	C.1
   480	2	 -5.9973	-10.8243	  -5.754	C.1
   481	2	 -6.0935	-10.4645	-6.61706	C.1
   482	2	-6.67346	-9.38071	-5.07678	C.1
   483	2	-6.76966	-9.02089	-5.93985	C.1
   484	1	 5.57679	-10.6622	-0.39905	N.3
   485	2	 5.50092	-11.3478	0.464112	C.1
   486	2	   4.778	-10.7564	0.358559	C.1
   487	2	 5.75323	-11.3452	-1.24945	C.1
   488	2	 5.03031	-10.7538	  -1.355	C.1
   489	2	 6.56059	-10.1807	-0.253486	C.1
   490	2	 5.83767	-9.58926	-0.359039	C.1
   491	1	-18.9976	 2.44157	-11.1966	N.3
   492	2	-18.3628	  2.8086	-10.3701	C.1
   493	2	-18.1765	 3.18076	-11.2129	C.1
   494	2	-20.0231	 2.61374	-10.8231	C.1
   495	2	-19.8368	  2.9859	-11.6659	C.1
   496	2	-18.8864	 1.34414	-11.1324	C.1
   497	2	-18.7001	  1.7163	-11.9753	C.1
   498	1	 11.5479	  1.1243	-9.18603	N.3
   499	2	 11.0759	0.336752	-8.57127	C.1
   500	2	 11.5173	0.0309671	-9.34283	C.1
   501	2	 12.1858	 1.66191	-8.46156	C.1
   502	2	 12.6272	 1.35612	-9.23312	C.1
   503	2	 10.7198	 1.83292	-9.36792	C.1
   504	2	 11.1612	 1.52713	-10.1395	C.1
   505	1	-13.9526	 -2.0519	 19.5461	N.3
   506	2	-13.4176	-2.99695	 19.7499	C.1
   507	2	-13.3972	-2.36742	 20.4477	C.1
   508	2	-14.9611	-2.39164	 19.2489	C.1
   509	2	-14.9408	-1.76211	 19.9466	C.1
   510	2	-13.5097	-1.71142	 18.5928	C.1
   511	2	-13.4893	-1.08189	 19.2906	C.1
   512	1	-15.8522	-17.3817	-9.21861	N.3
   513	2	-16.3313	-18.3108	-8.86058	C.1
   514	2	-15.7144	-18.4232	-9.56087	C.1
   515	2	-15.4388	-16.9385	-8.29477	C.1
   516	2	-14.8219	-17.0509	-8.99506	C.1
   517	2	-16.7118	-16.7272	-9.45005	C.1
   518	2	-16.0949	-16.8397	-10.1503	C.1
   519	1	-17.8637	-16.4282	 1.59302	N.3
   520	2	-17.9002	-15.4599	 1.06189	C.1
   521	2	-17.6599	 -16.198	0.531705	C.1
   522	2	-18.8597	-16.4942	  2.0667	C.1
   523	2	-18.6194	-17.2323	 1.53651	C.1
   524	2	-17.1916	-16.2233	 2.44576	C.1
   525	2	-16.9512	-16.9613	 1.91557	C.1
   526	1	-15.6403	-9.47743	 -3.7393	N.3
   527	2	-14.8537	-8.70146	-3.74987	C.1
   528	2	-15.0843	-9.02552	-2.89815	C.1
   529	2	-15.2549	-10.2373	-4.44282	C.1
   530	2	-15.4855	-10.5614	 -3.5911	C.1
   531	2	-16.4664	-9.00742	 -4.3028	C.1
   532	2	-16.6969	-9.33148	-3.45108	C.1
   533	1	 12.0394	0.820778	-7.24606	N.3
   534	2	 12.9907	0.313006	-7.48714	C.1
   535	2	 13.0626	 1.03266	-6.88669	C.1
   536	2	 11.3888	-0.00726867	-6.91154	C.1
   537	2	 11.4607	0.712381	-6.31109	C.1
   538	2	  11.631	 1.07712	-8.24018	C.1
   539	2	 11.7028	 1.79677	-7.63973	C.1
   540	1	 13.9812	 2.88264	 6.38561	N.3
   541	2	 14.3015	 3.47198	 7.26365	C.1
   542	2	 13.6602	 3.88701	  6.7159	C.1
   543	2	 13.6689	 1.91955	  6.8281	C.1
   544	2	 13.0275	 2.33458	 6.28036	C.1
   545	2	 14.9351	 2.63384	 5.88669	C.1
   546	2	 14.2938	 3.04886	 5.33895	C.1
   547	1	-15.7479	-19.3315	 6.44593	N.3
   548	2	-16.5776	-19.9099	 6.89097	C.1
   549	2	-15.9766	-20.4098	 6.36893	C.1
   550	2	-15.3007	  -18.82	 7.31727	C.1
   551	2	-14.6997	-19.3199	 6.79522	C.1
   552	2	 -16.267	-18.5148	 5.91263	C.1
   553	2	 -15.666	-19.0147	 5.39059	C.1
   554	1	-5.41028	-0.123133	 5.81724	N.3
   555	2	 -6.0583	0.514845	  6.4449	C.1
   556	2	-5.16711	0.803651	 6.36755	C.1
   557	2	-5.96711	-0.189577	  4.8652	C.1
   558	2	-5.07593	0.0992291	 4.78786	C.1
   559	2	-5.54219	-1.12787	 6.25764	C.1
   560	2	-4.65101	-0.839068	 6.18029	C.1
   561	1	 12.0303	 17.4616	-9.67399	N.3
   562	2	 12.3249	 18.0211	-10.5801	C.1
   563	2	 11.8926	 17.2017	-10.7391	C.1
   564	2	 11.4412	 18.2004	-9.10126	C.1
   565	2	 11.0089	  17.381	-9.26023	C.1
   566	2	 12.9732	 17.3923	-9.10216	C.1
   567	2	 12.5409	 16.5729	-9.26113	C.1
   568	1	-19.8351	0.355396	-2.82298	N.3
   569	2	 -19.844	-0.325429	 -3.6932	C.1
   570	2	-19.0191	-0.256589	 -3.2478	C.1
   571	2	-20.6735	-0.013524	-2.20507	C.1
   572	2	-19.8486	0.0553165	-1.75967	C.1
   573	2	-20.2252	 1.30188	-3.23876	C.1
   574	2	-19.4003	 1.37072	-2.79336	C.1
   575	1	 19.1152	 7.81792	 9.43988	N.3
   576	2	 18.6472	 6.83643	 9.63638	C.1
   577	2	 18.9282	  6.9752	 8.75014	C.1
   578	2	 19.9147	  7.8734	 10.2005	C.1
   579	2	 20.1956	 8.01217	 9.31427	C.1
   580	2	 18.3622	 8.53579	 9.81212	C.1
   581	2	 18.6431	 8.67456	 8.92587	C.1
   582	1	 5.85829	 14.4476	-15.6101	N.3
   583	2	 6.09244	 14.2463	 -16.671	C.1
   584	2	 6.40259	 15.0706	-16.3426	C.1
   585	2	 6.25339	  13.556	-15.0907	C.1
   586	2	 6.56354	 14.3803	-14.7622	C.1
   587	2	 4.76383	  14.304	-15.5614	C.1
   588	2	 5.07398	 15.1283	-15.2329	C.1
   589	1	 9.01065	-8.02983	 17.0344	N.3
   590	2	 9.14333	-8.14392	 18.1254	C.1
   591	2	 9.40365	-8.88646	 17.6111	C.1
   592	2	 9.54946	-7.09137	 16.8112	C.1
   593	2	 9.80978	-7.83392	 16.2969	C.1
   594	2	 7.94867	-7.74039	  16.938	C.1
   595	2	 8.20899	-8.48294	 16.4237	C.1
   596	1	-12.2418	-6.95779	 -13.737	N.3
   597	2	-11.6648	-6.03274	-13.5572	C.1
   598	2	-11.1534	-6.82002	-13.6049	C.1
   599	2	-12.8241	-6.71981	-14.6453	C.1
   600	2	-12.3127	-7.50709	 -14.693	C.1
   601	2	-13.0035	 -6.9399	-12.9368	C.1
   602	2	-12.4921	-7.72718	-12.9845	C.1
   603	1	 2.04597	-7.75028	 9.63469	N.3
   604	2	 1.67665	-8.76313	  9.3925	C.1
   605	2	 1.16399	-8.05661	 9.04377	C.1
   606	2	 3.09816	-7.77802	 9.29857	C.1
   607	2	  2.5855	 -7.0715	 8.94984	C.1
   608	2	 2.13208	-7.76948	 10.7361	C.1
   609	2	 1.61942	-7.06296	 10.3874	C.1
   610	1	 -2.5788	-12.6563	-10.0114	N.3
   611	2	-3.15141	-11.7272	-9.83858	C.1
   612	2	-2.72418	-11.7841	-10.6739	C.1
   613	2	-3.31888	-13.4509	-9.80697	C.1
   614	2	-2.89164	-13.5077	-10.6423	C.1
   615	2	-1.90696	-12.7055	-9.13557	C.1
   616	2	-1.47972	-12.7624	-9.97094	C.1
   617	1	 -15.873	-10.1784	-0.829141	N.3
   618	2	-16.7673	-10.2367	-1.47549	C.1
   619	2	-16.9319	-10.3355	-0.555296	C.1
   620	2	-15.4107	-9.21902	-1.12358	C.1
   621	2	-15.5753	 -9.3178	-0.203388	C.1
   622	2	-15.1942	-10.9313	-1.26864	C.1
   623	2	-15.3588	-11.0301	-0.348454	C.1
   624	1	-16.3516	  18.267	 17.8357	N.3
   625	2	 -15.322	  18.049	 18.1722	C.1
   626	2	-15.5757	 18.9528	 18.2209	C.1
   627	2	-16.9662	 17.5732	 18.4373	C.1
   628	2	-17.2199	  18.477	  18.486	C.1
   629	2	-16.3862	  17.823	 16.8245	C.1
   630	2	-16.6399	 18.7268	 16.8732	C.1
   631	1	 2.85492	-4.10418	-17.4096	N.3
   632	2	 2.19095	-4.89878	-17.0241	C.1
   633	2	 2.91177	-4.67353	-16.4644	C.1
   634	2	 2.15655	 -3.2774	-17.6323	C.1
   635	2	 2.87737	-3.05215	-17.0726	C.1
   636	2	 3.13603	-4.47422	-18.4121	C.1
   637	2	 3.85686	-4.24897	-17.8523	C.1
   638	1	-16.7962	 14.1546	 18.1622	N.3
   639	2	 -15.877	 14.3806	 18.7323	C.1
   640	2	-16.0598	  14.966	 18.0199	C.1
   641	2	-17.5745	 14.1098	 18.9452	C.1
   642	2	-17.7572	 14.6952	 18.2328	C.1
   643	2	-16.6629	 13.0953	 17.8778	C.1
   644	2	-16.8457	 13.6806	 17.1653	C.1
   645	1	-11.7428	-2.04903	 15.9089	N.3
   646	2	-12.3222	-2.94925	 16.1823	C.1
   647	2	-12.6913	-2.13376	 16.4693	C.1
   648	2	-11.6198	-2.15026	 14.8155	C.1
   649	2	-11.9888	-1.33477	 15.1025	C.1
   650	2	-10.7328	-2.27083	 16.2983	C.1
   651	2	-11.1018	-1.45534	 16.5853	C.1
   652	1	 11.9834	-14.7568	 17.7514	N.3
   653	2	 12.2114	-15.6503	 18.3602	C.1
   654	2	 11.8148	-14.9381	 18.8282	C.1
   655	2	 11.3821	 -15.165	 16.9191	C.1
   656	2	 10.9855	-14.4528	 17.3872	C.1
   657	2	 12.9516	-14.5236	 17.2727	C.1
   658	2	  12.555	-13.8113	 17.7408	C.1
   659	1	-19.7635	-4.25679	  10.963	N.3
   660	2	-19.8627	 -4.0132	 12.0362	C.1
   661	2	-19.9149	-4.92822	 11.8274	C.1
   662	2	 -18.817	-3.76301	 10.6783	C.1
   663	2	-18.8692	-4.67804	 10.4695	C.1
   664	2	-20.5326	-3.62163	 10.4877	C.1
   665	2	-20.5848	-4.53665	 10.2789	C.1
   666	1	 14.5894	-18.2489	-0.821125	N.3
   667	2	 15.4768	-18.6462	-0.296096	C.1
   668	2	 15.6509	-18.2443	-1.12781	C.1
   669	2	 14.1251	-17.5875	-0.0675554	C.1
   670	2	 14.2993	-17.1856	-0.899267	C.1
   671	2	 13.9051	-19.1158	-0.852156	C.1
   672	2	 14.0793	-18.7139	-1.68387	C.1
   673	1	-17.3963	-12.7623	-2.59412	N.3
   674	2	-16.6141	-13.3715	-2.10622	C.1
   675	2	-16.9776	-12.6869	-1.57435	C.1
   676	2	-18.1209	-13.5178	 -2.9477	C.1
   677	2	-18.4844	-12.8332	-2.41583	C.1
   678	2	-16.9085	-12.4245	-3.52626	C.1
   679	2	 -17.272	  -11.74	-2.99439	C.1
   680	1	 -2.3106	-2.30428	 11.8338	N.3
   681	2	-2.11462	-1.40975	 12.4521	C.1
   682	2	-1.82136	-1.35188	 11.5609	C.1
   683	2	-3.39596	-2.46699	 11.9618	C.1
   684	2	-3.10269	-2.40912	 11.0706	C.1
   685	2	-1.86113	-3.12291	 12.4243	C.1
   686	2	-1.56786	-3.06504	 11.5331	C.1
   687	1	  11.211	 1.05962	  19.915	N.3
   688	2	  11.207	-0.0444428	 19.9589	C.1
   689	2	 11.3019	0.388378	  20.788	C.1
   690	2	 10.2811	 1.29398	 19.3662	C.1
   691	2	  10.376	  1.7268	 20.1952	C.1
   692	2	 12.0026	 1.28009	 19.1763	C.1
   693	2	 12.0976	 1.71291	 20.0053	C.1
   694	1	 18.0388	-9.82264	 8.32869	N.3
   695	2	 19.0451	-10.2106	 8.08842	C.1
   696	2	 18.5493	-10.7324	 8.69304	C.1
   697	2	 17.5759	-9.68811	 7.33446	C.1
   698	2	 17.0801	-10.2098	 7.93908	C.1
   699	2	 18.2392	-8.78658	 8.65628	C.1
   700	2	 17.7433	 -9.3083	 9.26089	C.1
   701	1	-11.5771	 14.3147	  1.5461	N.3
   702	2	-12.6203	  13.959	 1.46821	C.1
   703	2	-12.1355	 13.9556	0.662884	C.1
   704	2	-11.1554	 13.6864	 2.35125	C.1
   705	2	-10.6706	 13.6829	 1.54592	C.1
   706	2	-11.6827	  15.304	 2.02684	C.1
   707	2	-11.1979	 15.3005	 1.22152	C.1
   708	1	 5.15536	 15.7625	-1.28957	N.3
   709	2	 5.93066	 16.5425	-1.39596	C.1
   710	2	 5.12745	 16.8285	-1.00011	C.1
   711	2	 5.68262	  14.954	-0.751811	C.1
   712	2	 4.87941	 15.2399	-0.355958	C.1
   713	2	 5.05761	  15.362	-2.31472	C.1
   714	2	  4.2544	  15.648	-1.91887	C.1
   715	1	-4.21647	 14.0136	-16.4184	N.3
   716	2	-4.33327	  14.773	-17.2125	C.1
   717	2	-4.35049	 13.8806	-17.5071	C.1
   718	2	-5.00416	 14.2842	-15.6923	C.1
   719	2	-5.02139	 13.3917	-15.9869	C.1
   720	2	-3.28613	 14.3224	-15.9085	C.1
   721	2	-3.30336	 13.4299	-16.2031	C.1
   722	1	0.671215	-15.6427	 11.3959	N.3
   723	2	  1.0907	-14.9965	 10.6038	C.1
   724	2	0.449262	-15.6195	 10.3137	C.1
   725	2	0.315315	-14.9183	 12.1506	C.1
   726	2	-0.326125	-15.5412	 11.8606	C.1
   727	2	 1.56979	-16.0787	 11.8684	C.1
   728	2	0.928349	-16.7016	 11.5784	C.1
   729	1	-18.6288	-2.46445	 15.6345	N.3
   730	2	-17.9412	   -3.31	 15.4523	C.1
   731	2	-18.0132	-3.03935	 16.3496	C.1
   732	2	-19.5722	-2.80098	  15.168	C.1
   733	2	-19.6441	-2.53032	 16.0653	C.1
   734	2	 -18.265	-1.68834	 14.9372	C.1
   735	2	 -18.337	-1.41769	 15.8345	C.1
   736	1	0.456031	 2.85956	 14.7792	N.3
   737	2	 0.13254	 2.42497	 13.8162	C.1
   738	2	 1.05513	 2.58873	 13.8912	C.1
   739	2	0.0411214	 2.15786	 15.5251	C.1
   740	2	0.963706	 2.32163	 15.6001	C.1
   741	2	-0.189445	 3.75021	 14.8839	C.1
   742	2	 0.73314	 3.91398	 14.9589	C.1
   743	1	 -19.938	-1.12481	-14.1667	N.3
   744	2	-19.5447	-1.14596	-13.1343	C.1
   745	2	 -18.894	-1.07199	-13.8087	C.1
   746	2	-20.6799	-0.306516	-14.1377	C.1
   747	2	-20.0291	-0.23254	 -14.812	C.1
   748	2	-20.5654	-2.03293	-14.2167	C.1
   749	2	-19.9147	-1.95895	 -14.891	C.1
   750	1	-10.0921	 6.28086	-14.0747	N.3
   751	2	-10.1447	 6.57821	-13.0118	C.1
   752	2	-10.3877	 7.24659	-13.6265	C.1
   753	2	-10.7064	 5.36316	-14.1109	C.1
   754	2	-10.9495	 6.03154	-14.7256	C.1
   755	2	-9.06072	 5.89864	-14.1794	C.1
   756	2	-9.30376	 6.56701	 -14.794	C.1
   757	1	-11.9634	 -6.0468	-16.4846	N.3
   758	2	-11.7802	-7.12495	-16.6424	C.1
   759	2	-12.6323	-6.90874	-16.3095	C.1
   760	2	-11.7152	-5.60217	-17.4651	C.1
   761	2	-12.5673	-5.38596	-17.1323	C.1
   762	2	-11.1168	 -5.7376	-15.8454	C.1
   763	2	-11.9689	-5.52139	-15.5126	C.1
   764	1	-12.3957	 16.3032	  17.712	N.3
   765	2	-11.6521	 15.8651	  18.402	C.1
   766	2	-11.8989	 15.3168	 17.6794	C.1
   767	2	-11.9422	 17.2716	 17.4337	C.1
   768	2	 -12.189	 16.7232	 16.7111	C.1
   769	2	-13.2226	 16.5954	 18.3841	C.1
   770	2	-13.4693	  16.047	 17.6615	C.1
   771	1	 19.9354	 18.4622	 10.5678	N.3
   772	2	 19.4241	 19.1812	 9.90249	C.1
   773	2	 19.7999	 19.5531	 10.6797	C.1
   774	2	 20.6519	 17.9596	 9.89337	C.1
   775	2	 21.0277	 18.3315	 10.6706	C.1
   776	2	 19.1665	  17.688	 10.7416	C.1
   777	2	 19.5423	   18.06	 11.5188	C.1
   778	1	 3.06857	-8.93589	 5.87813	N.3
   779	2	 3.28766	-9.37424	  4.8878	C.1
   780	2	 3.79462	-9.72081	 5.59948	C.1
   781	2	  1.9752	-9.06296	 5.97431	C.1
   782	2	 2.48215	-9.40954	 6.68598	C.1
   783	2	 3.18241	-7.85061	 5.70476	C.1
   784	2	 3.68936	-8.19718	 6.41644	C.1
   785	1	-14.0553	 7.67049	 4.76112	N.3
   786	2	-14.5395	 6.84589	 5.31468	C.1
   787	2	-14.6581	 7.70098	 5.68665	C.1
   788	2	-14.4429	 7.54697	 3.73382	C.1
   789	2	-14.5615	 8.40206	  4.1058	C.1
   790	2	-13.0056	 7.33598	  4.6769	C.1
   791	2	-13.1241	 8.19108	 5.04887	C.1
   792	1	-1.99522	 17.3695	 17.8749	N.3
   793	2	-2.50099	 16.6457	 17.2106	C.1
   794	2	 -2.0798	 16.2713	  17.963	C.1
   795	2	-2.78901	  18.105	 18.0981	C.1
   796	2	-2.36782	 17.7306	 18.8504	C.1
   797	2	-1.32745	 17.9194	 17.1875	C.1
   798	2	-0.906256	  17.545	 17.9398	C.1
   799	1	 10.6626	-7.69874	-9.70452	N.3
   800	2	 11.3118	-8.41757	-9.17278	C.1
   801	2	 11.3837	-7.52546	-8.88542	C.1
   802	2	 9.65681	-8.14506	-9.60475	C.1
   803	2	 9.72869	-7.25296	-9.31739	C.1
   804	2	 10.9115	-7.87175	-10.7671	C.1
   805	2	 10.9833	-6.97965	-10.4797	C.1
   806	1	0.421511	 0.84351	  2.1309	N.3
   807	2	0.860297	  1.7642	 2.55599	C.1
   808	2	0.648405	 1.09611	 3.18238	C.1
   809	2	 1.15399	0.548033	 1.35822	C.1
   810	2	0.942093	-0.120051	 1.98461	C.1
   811	2	-0.43191	 1.22043	  1.5389	C.1
   812	2	-0.643803	0.552342	 2.16529	C.1
   813	1	 10.0615	 4.91886	 -2.1509	N.3
   814	2	 10.3897	 4.88696	-3.20551	C.1
   815	2	 10.6892	 5.63139	-2.71591	C.1
   816	2	 10.3817	 3.93746	-1.75694	C.1
   817	2	 10.6812	  4.6819	-1.26734	C.1
   818	2	  8.9639	  4.8155	-2.22465	C.1
   819	2	 9.26342	 5.55994	-1.73505	C.1
   820	1	-13.8626	 17.8495	 18.5316	N.3
   821	2	-13.0524	 17.5956	 17.8244	C.1
   822	2	-13.3489	 18.4869	 17.7895	C.1
   823	2	-13.4565	 17.5272	 19.5073	C.1
   824	2	-13.7529	 18.4185	 19.4723	C.1
   825	2	-14.6342	 17.0887	 18.3154	C.1
   826	2	-14.9307	 17.9801	 18.2805	C.1
   827	1	 -12.849	 19.7895	  16.573	N.3
   828	2	  -12.51	 19.3304	 17.5192	C.1
   829	2	-11.8612	 19.3725	 16.8403	C.1
   830	2	-13.2546	  20.765	 16.8967	C.1
   831	2	-12.6058	 20.8071	 16.2178	C.1
   832	2	-13.7554	 19.2099	 16.3216	C.1
   833	2	-13.1067	 19.2521	 15.6427	C.1
   834	1	 16.5623	-1.41819	 16.9911	N.3
   835	2	 16.1925	-0.683558	  17.729	C.1
   836	2	 15.5346	 -1.2426	  17.357	C.1
   837	2	 17.3689	-1.94013	 17.5369	C.1
   838	2	 16.7111	-2.49917	 17.1649	C.1
   839	2	 17.1124	-0.79232	 16.2654	C.1
   840	2	 16.4545	-1.35136	 15.8935	C.1
   841	1	-15.1591	 4.15149	 19.7625	N.3
   842	2	-15.4579	 5.20887	 19.8789	C.1
   843	2	-14.9411	 4.85961	 20.5822	C.1
   844	2	-14.6746	 4.13377	 18.7696	C.1
   845	2	-14.1579	 3.78452	 19.4728	C.1
   846	2	-16.1198	  3.6357	  19.584	C.1
   847	2	 -15.603	 3.28644	 20.2873	C.1
   848	1	-16.1538	-16.5828	 15.4069	N.3
   849	2	-15.5671	-17.1992	 14.7022	C.1
   850	2	-16.0627	-16.5043	 14.3085	C.1
   851	2	-15.4007	-16.2612	 16.1487	C.1
   852	2	-15.8964	-15.5663	  15.755	C.1
   853	2	-16.7502	-17.3304	 15.9603	C.1
   854	2	-17.2459	-16.6355	 15.5666	C.1
   855	1	-19.9029	-12.3355	 12.2244	N.3
   856	2	-19.0105	-12.9609	  12.407	C.1
   857	2	-19.2404	-12.3781	 13.1077	C.1
   858	2	-20.6785	-13.0746	 11.9543	C.1
   859	2	-20.9084	-12.4918	 12.6551	C.1
   860	2	-19.6749	-11.8451	 11.2609	C.1
   861	2	-19.9048	-11.2622	 11.9617	C.1
   862	1	-8.07645	-7.79771	 11.9588	N.3
   863	2	 -8.2281	-7.27259	 10.9985	C.1
   864	2	-8.24995	 -6.7244	 11.7618	C.1
   865	2	-7.12999	-8.34544	 11.8005	C.1
   866	2	-7.15184	-7.79725	 12.5638	C.1
   867	2	-8.83848	-8.59738	 11.9325	C.1
   868	2	-8.86032	-8.04919	 12.6958	C.1
   869	1	 2.80557	 8.48221	-4.29651	N.3
   870	2	 1.93613	 8.66797	-3.64041	C.1
   871	2	 2.77416	 8.84645	 -3.2538	C.1
   872	2	 2.57005	 9.07169	 -5.2009	C.1
   873	2	 3.40807	 9.25017	-4.81429	C.1
   874	2	  2.6535	 7.43926	-4.62814	C.1
   875	2	 3.49152	 7.61775	-4.24154	C.1
   876	1	 8.20833	 14.9596	 6.45712	N.3
   877	2	 8.98101	 14.1787	 6.33821	C.1
   878	2	 8.99416	 14.8567	  5.6872	C.1
   879	2	 8.35471	 15.3035	  7.4969	C.1
   880	2	 8.36787	 15.9815	 6.84589	C.1
   881	2	 7.26953	 14.3796	 6.51276	C.1
   882	2	 7.28269	 15.0575	 5.86176	C.1
   883	1	 15.3653	-9.37944	-16.3242	N.3
   884	2	 15.2746	-10.3208	-16.8956	C.1
   885	2	 14.4824	 -10.024	-16.4857	C.1
   886	2	 15.8055	-8.68013	-17.0576	C.1
   887	2	 15.0134	-8.38329	-16.6478	C.1
   888	2	 16.2039	-9.58266	-15.6341	C.1
   889	2	 15.4118	-9.28582	-15.2242	C.1
   890	1	-6.93645	-12.3568	-14.6158	N.3
   891	2	-7.88569	-12.2672	-14.0574	C.1
   892	2	-7.96073	-12.1792	-14.9903	C.1
   893	2	 -6.5278	-13.3219	-14.2661	C.1
   894	2	-6.60284	-13.2339	 -15.199	C.1
   895	2	-6.28329	-11.6131	-14.1246	C.1
   896	2	-6.35834	-11.5251	-15.0575	C.1
   897	1	-6.04267	-10.3049	 3.15418	N.3
   898	2	 -4.9451	-10.3062	 3.28164	C.1
   899	2	-5.41487	-9.73967	 3.86642	C.1
   900	2	-6.30634	-11.3756	 3.22415	C.1
   901	2	-6.77611	-10.8091	 3.80894	C.1
   902	2	 -6.1719	-10.0827	 2.07958	C.1
   903	2	-6.64167	-9.51615	 2.66437	C.1
   904	1	-12.4924	 6.66325	 -16.864	N.3
   905	2	-13.4746	 6.86188	-17.3294	C.1
   906	2	-13.4707	 6.86006	-16.3894	C.1
   907	2	 -11.833	 7.41421	-17.3353	C.1
   908	2	-11.8291	 7.41239	-16.3953	C.1
   909	2	-12.1755	  5.7164	-17.3371	C.1
   910	2	-12.1715	 5.71458	-16.3971	C.1
   911	1	-12.4867	 10.4607	-12.9593	N.3
   912	2	-12.4553	 10.9296	-13.9593	C.1
   913	2	-12.6962	  10.021	-13.9511	C.1
   914	2	-13.1552	 11.1295	-12.3877	C.1
   915	2	-13.3961	 10.2209	-12.3794	C.1
   916	2	-11.4882	  10.686	-12.5433	C.1
   917	2	-11.7291	 9.77744	 -12.535	C.1
   918	1	-11.2712	-11.7881	-12.5255	N.3
   919	2	-12.1404	-11.1066	-12.5575	C.1
   920	2	-11.4194	-10.8612	-13.1085	C.1
   921	2	-11.7161	-12.7753	-12.7453	C.1
   922	2	-10.9951	-12.5299	-13.2963	C.1
   923	2	-11.0387	-11.8503	-11.4471	C.1
   924	2	-10.3177	 -11.605	-11.9981	C.1
   925	1	-16.5603	-3.93002	-6.05914	N.3
   926	2	-16.5958	-3.00805	 -6.6671	C.1
   927	2	 -17.082	-2.97592	-5.86329	C.1
   928	2	-15.4771	-4.11646	-5.94604	C.1
   929	2	-15.9634	-4.08433	-5.14223	C.1
   930	2	-16.8786	-4.71374	-6.77001	C.1
   931	2	-17.3648	-4.68161	 -5.9662	C.1
   932	1	-8.73079	 2.24854	-15.2464	N.3
   933	2	-8.72647	 3.03349	-14.4688	C.1
   934	2	-9.50817	  2.9904	-14.9891	C.1
   935	2	-8.49205	 1.33043	-14.6799	C.1
   936	2	-9.27375	 1.28733	-15.2002	C.1
   937	2	 -7.8013	 2.44634	-15.8101	C.1
   938	2	-8.58299	 2.40325	-16.3304	C.1
   939	1	 7.74688	 11.1928	  7.5842	N.3
   940	2	 8.01657	 10.3815	 8.28415	C.1
   941	2	 8.08385	  10.162	 7.37261	C.1
   942	2	 8.38445	 12.0329	 7.91363	C.1
   943	2	 8.45172	 11.8134	 7.00209	C.1
   944	2	 6.73871	 11.4932	 7.92213	C.1
   945	2	 6.80598	 11.2737	  7.0106	C.1
   946	1	-4.06066	 8.57486	-3.34734	N.3
   947	2	-3.12368	 8.96178	-2.90773	C.1
   948	2	-3.03386	 8.56555	-3.75539	C.1
   949	2	-4.73819	 9.44667	-3.30546	C.1
   950	2	-4.64837	 9.05044	-4.15312	C.1
   951	2	-4.45483	 7.91049	-2.55735	C.1
   952	2	-4.36502	 7.51425	-3.40501	C.1
   953	1	 19.6423	-16.0775	 6.51202	N.3
   954	2	  19.914	-15.5943	 7.46786	C.1
   955	2	 19.5108	-16.4397	 7.54759	C.1
   956	2	 20.5888	-16.0601	 5.94217	C.1
   957	2	 20.1855	-16.9055	 6.02189	C.1
   958	2	  19.029	  -15.31	 6.00644	C.1
   959	2	 18.6257	-16.1553	 6.08616	C.1
   960	1	-11.1392	-6.66883	-10.4421	N.3
   961	2	-11.5595	-7.16337	-11.3363	C.1
   962	2	-11.2784	-6.27571	-11.4653	C.1
   963	2	-10.3498	-7.36885	-10.1139	C.1
   964	2	-10.0687	 -6.4812	-10.2429	C.1
   965	2	-11.9299	-6.80575	 -9.6826	C.1
   966	2	-11.6488	 -5.9181	-9.81158	C.1
   967	1	 10.4949	  16.837	 5.57808	N.3
   968	2	 11.3836	 17.2259	 6.10706	C.1
   969	2	 11.3002	 17.4988	 5.21142	C.1
   970	2	 9.65921	 17.1306	 6.23863	C.1
   971	2	 9.57579	 17.4035	 5.34299	C.1
   972	2	 10.5669	 15.7453	 5.73199	C.1
   973	2	 10.4835	 16.0182	 4.83635	C.1
   974	1	 5.06315	-11.2025	 19.4049	N.3
   975	2	  4.6149	-10.5345	 18.6475	C.1
   976	2	 4.37032	-10.3519	 19.5366	C.1
   977	2	 6.14529	-11.1357	  19.192	C.1
   978	2	 5.90071	-10.9531	 20.0811	C.1
   979	2	 4.79613	-12.2113	 19.0417	C.1
   980	2	 4.55155	-12.0288	 19.9308	C.1
   981	1	 -16.865	-7.58711	 -17.776	N.3
   982	2	-15.7917	-7.83214	 -17.682	C.1
   983	2	-16.0072	-6.92561	 -17.558	C.1
   984	2	-17.3465	-8.28572	-17.0682	C.1
   985	2	-17.5621	 -7.3792	-16.9443	C.1
   986	2	-17.1335	-8.00325	-18.7637	C.1
   987	2	 -17.349	-7.09672	-18.6398	C.1
   988	1	 2.11308	-19.3915	 6.22357	N.3
   989	2	 1.31117	-19.0686	 5.53541	C.1
   990	2	 1.22971	-18.7571	 6.41853	C.1
   991	2	 3.03538	-19.0826	 5.69939	C.1
   992	2	 2.95391	 -18.771	 6.58251	C.1
   993	2	 2.11488	-20.4907	 6.11125	C.1
   994	2	 2.03341	-20.1792	 6.99437	C.1
   995	1	-8.08614	-0.42404	 7.38793	N.3
   996	2	 -7.2539	0.0526105	 7.93664	C.1
   997	2	-8.09418	0.457121	 8.05456	C.1
   998	2	-8.02476	-1.48093	 7.70428	C.1
   999	2	-8.86503	-1.07642	  7.8222	C.1
  1000	2	-7.71935	-0.450566	 6.34601	C.1
  1001	2	-8.55963	-0.0460561	 6.46392	C.1
  1002	1	 2.81107	-14.7371	-2.21846	N.3
  1003	2	  3.7315	-15.2445	-1.87753	C.1
  1004	2	 3.20928	-15.7317	 -2.4887	C.1
  1005	2	 3.18126	-13.7637	-2.58781	C.1
  1006	2	 2.65905	 -14.251	-3.19897	C.1
  1007	2	 2.30378	-14.4722	-1.27329	C.1
  1008	2	 1.78157	-14.9594	-1.88446	C.1
  1009	1	 9.05988	-10.0153	 6.74827	N.3
  1010	2	 9.27807	-9.40838	 7.64549	C.1
  1011	2	 9.51646	-10.3154	 7.70865	C.1
  1012	2	 9.55707	-9.45403	 5.93668	C.1
  1013	2	 9.79547	-10.3611	 5.99984	C.1
  1014	2	 7.98691	-9.82275	 6.56791	C.1
  1015	2	 8.22531	-10.7298	 6.63107	C.1
  1016	1	 7.72598	 5.34704	-11.0193	N.3
  1017	2	 7.94521	 6.41384	-11.2058	C.1
  1018	2	 8.60557	 5.81269	-11.4993	C.1
  1019	2	 6.72936	 5.21034	-11.4764	C.1
  1020	2	 7.38972	 4.60919	-11.7699	C.1
  1021	2	 7.51282	 5.31868	-9.93549	C.1
  1022	2	 8.17318	 4.71753	 -10.229	C.1
  1023	1	  5.9316	-10.0104	 -15.581	N.3
  1024	2	 6.83328	-10.5726	-15.8839	C.1
  1025	2	  6.0349	-11.0688	 -15.881	C.1
  1026	2	 5.93961	-9.13671	-16.2574	C.1
  1027	2	 5.14122	-9.63287	-16.2546	C.1
  1028	2	  6.2195	-9.57751	 -14.606	C.1
  1029	2	 5.42111	-10.0737	-14.6031	C.1
  1030	1	-13.6274	 8.41503	 19.5428	N.3
  1031	2	 -12.963	 8.26227	 20.4123	C.1
  1032	2	-13.7477	 8.74867	 20.5892	C.1
  1033	2	-13.7857	 7.38971	 19.1626	C.1
  1034	2	-14.5704	 7.87611	 19.3395	C.1
  1035	2	-12.9566	 8.86349	  18.788	C.1
  1036	2	-13.7412	  9.3499	 18.9649	C.1
  1037	1	0.469592	-16.2205	   13.39	N.3
  1038	2	-0.00726332	-15.4261	  13.992	C.1
  1039	2	-0.59504	-16.0732	 13.6464	C.1
  1040	2	 1.25478	-16.6103	 14.0626	C.1
  1041	2	   0.667	-17.2573	  13.717	C.1
  1042	2	 1.04293	-15.6546	 12.6337	C.1
  1043	2	0.455151	-16.3017	 12.2881	C.1
  1044	1	-3.97344	 5.33138	-7.52069	N.3
  1045	2	-4.40256	 4.98738	-6.56235	C.1
  1046	2	-3.49895	  4.7667	-6.69796	C.1
  1047	2	-4.19877	 6.41307	-7.52455	C.1
  1048	2	-3.29516	 6.19239	-7.66016	C.1
  1049	2	-4.67441	  4.9247	-8.27177	C.1
  1050	2	-3.77081	 4.70402	-8.40738	C.1
  1051	1	 8.32977	 6.46553	 4.63023	N.3
  1052	2	 8.82842	 6.39888	 3.64646	C.1
  1053	2	 9.36598	 6.17188	 4.38341	C.1
  1054	2	 7.42628	 5.84335	 4.49813	C.1
  1055	2	 7.96384	 5.61635	 5.23508	C.1
  1056	2	 7.92826	 7.49487	 4.64068	C.1
  1057	2	 8.46582	 7.26787	 5.37763	C.1
  1058	1	-0.532873	-10.7417	-9.68709	N.3
  1059	2	0.285709	-11.0543	-10.3602	C.1
  1060	2	-0.446367	-10.6447	-10.7844	C.1
  1061	2	-0.0169516	-10.1188	-8.93436	C.1
  1062	2	-0.749027	-9.70917	-9.35851	C.1
  1063	2	-0.769264	-11.6665	-9.13047	C.1
  1064	2	-1.50134	-11.2569	-9.55462	C.1
  1065	1	 16.4806	-7.33191	-17.2619	N.3
  1066	2	 15.8817	 -7.3164	-16.3335	C.1
  1067	2	 15.6176	-6.69772	-16.9901	C.1
  1068	2	 16.4396	-8.39184	-17.5713	C.1
  1069	2	 16.1755	-7.77316	-18.2279	C.1
  1070	2	 17.5167	 -7.2155	-16.8961	C.1
  1071	2	 17.2526	-6.59682	-17.5527	C.1
  1072	1	-6.19105	-14.0134	 1.32961	N.3
  1073	2	-5.23374	-14.3435	0.887505	C.1
  1074	2	-5.21086	-13.5038	  1.3093	C.1
  1075	2	-6.47312	-14.8594	 1.98189	C.1
  1076	2	-6.45025	-14.0197	 2.40369	C.1
  1077	2	-6.90062	-14.0968	 0.48675	C.1
  1078	2	-6.87775	-13.2571	0.908542	C.1
  1079	1	-11.9065	 17.1151	 6.10261	N.3
  1080	2	-12.2396	 17.8042	 5.30571	C.1
  1081	2	-11.3153	  17.634	 5.32662	C.1
  1082	2	-12.5449	 16.2261	 5.95082	C.1
  1083	2	-11.6207	 16.0558	 5.97173	C.1
  1084	2	-12.3214	 17.5703	 7.01992	C.1
  1085	2	-11.3972	    17.4	 7.04083	C.1
  1086	1	-4.96637	-6.74292	-19.0086	N.3
  1087	2	-4.74453	-7.79442	-19.2656	C.1
  1088	2	-5.57779	-7.65038	 -18.855	C.1
  1089	2	-4.81593	-6.21183	-19.9657	C.1
  1090	2	-5.64919	-6.06779	-19.5552	C.1
  1091	2	-4.08875	-6.43857	-18.4102	C.1
  1092	2	-4.92201	-6.29453	-17.9997	C.1
  1093	1	-14.4731	 18.4725	-2.56857	N.3
  1094	2	 -14.794	 18.5838	   -3.62	C.1
  1095	2	-15.4887	 18.4417	-3.00284	C.1
  1096	2	 -13.866	 19.3787	-2.39245	C.1
  1097	2	-14.5607	 19.2366	-1.77529	C.1
  1098	2	-13.7173	 17.6681	-2.61901	C.1
  1099	2	-14.4119	 17.5259	-2.00185	C.1
  1100	1	-19.9642	-5.59611	 13.0634	N.3
  1101	2	-19.2585	 -5.0188	 13.6876	C.1
  1102	2	-19.0999	 -5.9448	 13.6569	C.1
  1103	2	-19.9198	-5.07909	 12.0879	C.1
  1104	2	-19.7612	 -6.0051	 12.0572	C.1
  1105	2	-20.9522	-5.30144	 13.4607	C.1
  1106	2	-20.7936	-6.22745	   13.43	C.1
  1107	1	-10.7247	-14.8084	 9.39537	N.3
  1108	2	-11.5778	-15.5102	 9.41799	C.1
  1109	2	-11.3338	-15.2049	  8.5631	C.1
  1110	2	-9.93476	-15.3532	 9.94306	C.1
  1111	2	-9.69072	-15.0479	 9.08817	C.1
  1112	2	-11.0275	-14.0196	 10.1074	C.1
  1113	2	-10.7835	-13.7143	 9.25252	C.1
  1114	1	 -2.9034	 14.8313	 7.63715	N.3
  1115	2	-3.22371	 15.4246	 8.51252	C.1
  1116	2	-2.55351	   15.82	 7.98512	C.1
  1117	2	-3.85299	  14.623	 7.11202	C.1
  1118	2	-3.18278	 15.0183	 6.58462	C.1
  1119	2	-2.63881	 13.8533	 8.07802	C.1
  1120	2	-1.96861	 14.2486	 7.55061	C.1
  1121	1	 19.7864	 8.61773	-5.16181	N.3
  1122	2	 20.2131	 7.59849	-5.16314	C.1
  1123	2	 19.3794	 7.68238	-4.73713	C.1
  1124	2	 19.7985	   8.898	-6.23053	C.1
  1125	2	 18.9648	 8.98189	-5.80451	C.1
  1126	2	 20.5983	 9.23086	-4.73077	C.1
  1127	2	 19.7646	 9.31476	-4.30476	C.1
  1128	1	-19.0619	 9.32684	 3.11912	N.3
  1129	2	 -18.968	 10.2994	 3.63502	C.1
  1130	2	-19.2828	 10.3448	 2.75043	C.1
  1131	2	-19.6869	 8.73345	 3.81053	C.1
  1132	2	-20.0017	 8.77879	 2.92594	C.1
  1133	2	-18.0586	 8.87963	 3.23868	C.1
  1134	2	-18.3733	 8.92497	 2.35409	C.1
  1135	1	-3.82779	 4.84175	 4.16901	N.3
  1136	2	-3.36642	   5.718	 4.65913	C.1
  1137	2	-3.32405	 5.71674	 3.72009	C.1
  1138	2	-4.84775	 4.82284	 4.59349	C.1
  1139	2	-4.80538	 4.82158	 3.65445	C.1
  1140	2	-3.33276	 3.98629	 4.66297	C.1
  1141	2	-3.29039	 3.98504	 3.72393	C.1
  1142	1	   -3.24	-16.2108	-19.0279	N.3
  1143	2	 -3.1769	-16.3812	-20.1178	C.1
  1144	2	-3.84533	-16.8714	-19.6745	C.1
  1145	2	-3.33201	-15.1125	-18.9489	C.1
  1146	2	-4.00044	-15.6027	-18.5056	C.1
  1147	2	-2.20844	-16.4033	 -18.682	C.1
  1148	2	-2.87687	-16.8935	-18.2387	C.1
  1149	1	   7.674	 -11.812	-12.7169	N.3
  1150	2	 8.27796	-10.9502	  -12.38	C.1
  1151	2	 8.63319	-11.4273	-13.1079	C.1
  1152	2	 6.67579	-11.3698	-12.8869	C.1
  1153	2	 7.03101	-11.8469	-13.6148	C.1
  1154	2	 7.53541	-12.4003	-11.7919	C.1
  1155	2	 7.89063	-12.8774	-12.5198	C.1
  1156	1	 2.74155	 14.1898	 1.27187	N.3
  1157	2	 2.06257	 13.6973	 1.99118	C.1
  1158	2	 2.57062	 14.4062	 2.34183	C.1
  1159	2	 2.07116	 14.4603	0.436268	C.1
  1160	2	  2.5792	 15.1692	0.786922	C.1
  1161	2	 3.32885	 13.3483	0.862173	C.1
  1162	2	  3.8369	 14.0572	 1.21283	C.1
  1163	1	-5.24838	 16.7336	 3.33813	N.3
  1164	2	-4.79396	 15.8944	  2.7813	C.1
  1165	2	-5.33287	 15.6455	 3.51013	C.1
  1166	2	-5.76264	 17.3113	 2.54902	C.1
  1167	2	-6.30155	 17.0624	 3.27785	C.1
  1168	2	-4.38018	 17.3687	 3.59081	C.1
  1169	2	-4.91909	 17.1197	 4.31965	C.1
  1170	1	-14.1711	 17.0069	-7.19356	N.3
  1171	2	-15.1867	 17.1232	-6.77405	C.1
  1172	2	-15.0208	 17.6105	-7.56057	C.1
  1173	2	-14.0605	 15.9115	-7.28712	C.1
  1174	2	-13.8945	 16.3988	-8.07364	C.1
  1175	2	-13.5152	  17.255	-6.33972	C.1
  1176	2	-13.3492	 17.7422	-7.12625	C.1
  1177	1	  16.625	-19.4115	0.336974	N.3
  1178	2	 15.8185	-18.8071	-0.116083	C.1
  1179	2	 15.5421	-19.4029	0.556435	C.1
  1180	2	 17.3613	-18.6518	0.655647	C.1
  1181	2	 17.0849	-19.2476	 1.32817	C.1
  1182	2	 17.1097	-19.8819	-0.53742	C.1
  1183	2	 16.8333	-20.4777	0.135098	C.1
  1184	1	-9.93201	 9.00481	-10.9202	N.3
  1185	2	-9.12836	  8.5652	-10.3023	C.1
  1186	2	-9.67254	 7.94411	-10.7515	C.1
  1187	2	-9.39026	 9.71319	-11.5726	C.1
  1188	2	-9.93445	  9.0921	-12.0217	C.1
  1189	2	-10.4611	 9.66769	-10.2121	C.1
  1190	2	-11.0053	  9.0466	-10.6612	C.1
  1191	1	  5.4653	 6.27919	-17.3086	N.3
  1192	2	 6.28243	 6.38505	-16.5724	C.1
  1193	2	 5.79172	 5.58551	-16.5129	C.1
  1194	2	 5.97286	 6.44829	-18.2754	C.1
  1195	2	 5.48215	 5.64875	-18.2159	C.1
  1196	2	 4.87668	 7.20354	-17.1673	C.1
  1197	2	 4.38597	   6.404	-17.1078	C.1
  1198	1	 14.1541	-3.87804	 14.9671	N.3
  1199	2	 13.7421	 -4.7983	 15.4191	C.1
  1200	2	 14.3424	-4.93577	 14.7089	C.1
  1201	2	 14.5692	-3.33433	 15.8348	C.1
  1202	2	 15.1695	 -3.4718	 15.1246	C.1
  1203	2	 13.2505	-3.29529	 14.7126	C.1
  1204	2	 13.8508	-3.43276	 14.0024	C.1
  1205	1	 7.01471	 3.16182	 2.89093	N.3
  1206	2	 7.34269	 2.85977	 1.87994	C.1
  1207	2	  8.0168	 3.21751	 2.42875	C.1
  1208	2	 6.52562	 2.25085	 3.28051	C.1
  1209	2	 7.19974	 2.60859	 3.82931	C.1
  1210	2	 6.16466	 3.83824	 2.68914	C.1
  1211	2	 6.83877	 4.19598	 3.23794	C.1
  1212	1	-3.60936	 8.11969	-19.4578	N.3
  1213	2	-2.87863	 7.88292	-20.2521	C.1
  1214	2	-2.52405	 8.32258	-19.5007	C.1
  1215	2	-4.08283	 7.14303	-19.2509	C.1
  1216	2	-3.72825	 7.58268	-18.4995	C.1
  1217	2	-4.39848	 8.67362	-19.9975	C.1
  1218	2	 -4.0439	 9.11328	-19.2461	C.1
  1219	1	-16.6409	 5.31534	 17.8378	N.3
  1220	2	-15.6462	 5.48002	 18.2899	C.1
  1221	2	-15.9146	 6.13022	 17.6663	C.1
  1222	2	-17.3023	 5.20496	  18.716	C.1
  1223	2	-17.5707	 5.85516	 18.0925	C.1
  1224	2	-16.5715	 4.28574	 17.4429	C.1
  1225	2	-16.8399	 4.93595	 16.8193	C.1
  1226	1	  -1.352	 3.40217	 2.94497	N.3
  1227	2	-2.09245	  3.4501	 3.76371	C.1
  1228	2	-1.44178	 4.12844	 3.77284	C.1
  1229	2	-1.98103	 3.36647	 2.03728	C.1
  1230	2	-1.33036	 4.04481	 2.04641	C.1
  1231	2	-0.958516	 2.37243	 3.02022	C.1
  1232	2	-0.307846	 3.05077	 3.02936	C.1
  1233	1	-18.5109	 16.0266	  12.423	N.3
  1234	2	-19.1204	  15.105	 12.4344	C.1
  1235	2	-19.5998	 15.8996	 12.2844	C.1
  1236	2	-17.7277	 15.8022	 11.6767	C.1
  1237	2	 -18.207	 16.5968	 11.5267	C.1
  1238	2	-17.9657	 15.9807	  13.383	C.1
  1239	2	-18.4451	 16.7753	  13.233	C.1
  1240	1	 -19.827	 5.22432	 10.4341	N.3
  1241	2	-20.6951	 5.84394	 10.7227	C.1
  1242	2	-20.6264	 5.01943	 11.1689	C.1
  1243	2	-18.9706	 5.90802	 10.5753	C.1
  1244	2	-18.9018	 5.08352	 11.0215	C.1
  1245	2	-19.9184	 5.15776	 9.33498	C.1
  1246	2	-19.8497	 4.33326	 9.78114	C.1
  1247	1	 -18.472	 19.8182	 18.1644	N.3
  1248	2	-18.4043	 19.1082	 19.0083	C.1
  1249	2	-19.2716	  19.411	 18.8092	C.1
  1250	2	-17.9606	 19.2841	 17.3433	C.1
  1251	2	-18.8279	  19.587	 17.1442	C.1
  1252	2	-17.7502	 20.6079	 18.4402	C.1
  1253	2	-18.6175	 20.9108	  18.241	C.1
  1254	1	 3.56635	-13.9407	-7.65444	N.3
  1255	2	 3.89888	-14.2964	-6.66258	C.1
  1256	2	 4.03769	-14.8989	-7.37061	C.1
  1257	2	 4.07856	-12.9672	-7.75844	C.1
  1258	2	 4.21737	-13.5697	-8.46647	C.1
  1259	2	 2.51339	-13.6547	-7.48025	C.1
  1260	2	 2.65219	-14.2572	-8.18828	C.1
  1261	1	 -6.3159	 13.2173	-14.0355	N.3
  1262	2	-6.37915	 12.3274	-13.3836	C.1
  1263	2	-5.51241	 12.5534	-13.6687	C.1
  1264	2	-6.83632	 13.9966	-13.4502	C.1
  1265	2	-5.96958	 14.2226	-13.7353	C.1
  1266	2	-7.03233	 12.9888	-14.8451	C.1
  1267	2	-6.16559	 13.2148	-15.1302	C.1
  1268	1	-7.74523	-6.37482	-6.46441	N.3
  1269	2	-7.96241	-7.36588	-6.02677	C.1
  1270	2	-8.03441	-7.31764	-6.96277	C.1
  1271	2	-6.74748	-6.13178	-6.05663	C.1
  1272	2	-6.81948	-6.08354	-6.99262	C.1
  1273	2	-8.41779	-5.69916	-5.90584	C.1
  1274	2	-8.48979	-5.65092	-6.84184	C.1
  1275	1	 18.7893	  14.978	 15.4533	N.3
  1276	2	 18.7501	 15.9244	 14.8845	C.1
  1277	2	 18.1621	 15.2543	 14.5866	C.1
  1278	2	  18.639	 15.3048	  16.498	C.1
  1279	2	  18.051	 14.6346	 16.2002	C.1
  1280	2	 19.8609	   14.71	 15.4242	C.1
  1281	2	 19.2729	 14.0398	 15.1263	C.1
  1282	1	 12.9123	-13.6554	 15.5061	N.3
  1283	2	 12.9693	-14.7558	 15.4229	C.1
  1284	2	 13.7684	-14.2986	 15.2334	C.1
  1285	2	 12.5116	-13.4994	 16.5239	C.1
  1286	2	 13.3107	-13.0422	 16.3344	C.1
  1287	2	 12.0573	-13.3969	 14.8556	C.1
  1288	2	 12.8565	-12.9397	 14.6661	C.1
  1289	1	-10.4551	-6.97689	-1.03712	N.3
  1290	2	-10.5959	 -7.5522	-1.96991	C.1
  1291	2	 -9.8151	-7.75663	-1.48806	C.1
  1292	2	-11.4013	-7.14438	-0.491774	C.1
  1293	2	-10.6206	-7.34881	-0.00991782	C.1
  1294	2	-10.5392	-5.92745	-1.37246	C.1
  1295	2	-9.75841	-6.13188	-0.890609	C.1
  1296	1	 14.0302	-0.556832	 8.40146	N.3
  1297	2	 14.1239	-1.01823	 7.40185	C.1
  1298	2	 14.4523	-1.53666	 8.11391	C.1
  1299	2	  12.957	-0.301161	 8.46201	C.1
  1300	2	 13.2853	 -0.8196	 9.17407	C.1
  1301	2	 14.5172	0.426549	 8.27244	C.1
  1302	2	 14.8455	-0.0918892	  8.9845	C.1
  1303	1	-10.2819	-9.82517	 9.32884	N.3
  1304	2	-9.67878	-9.00327	 9.75499	C.1
  1305	2	-9.47683	-9.22742	 8.86472	C.1
  1306	2	-11.3211	-9.49404	 9.50601	C.1
  1307	2	-11.1191	-9.71818	 8.61574	C.1
  1308	2	-10.1489	 -10.642	 10.0609	C.1
  1309	2	 -9.9469	-10.8661	 9.17067	C.1
  1310	1	-13.7375	-17.5799	 -17.249	N.3
  1311	2	-14.3208	-17.8716	 -16.357	C.1
  1312	2	-13.3933	-18.0089	-16.2907	C.1
  1313	2	-14.0467	-16.5332	-17.4217	C.1
  1314	2	-13.1191	-16.6704	-17.3553	C.1
  1315	2	-14.2365	 -18.129	-18.0678	C.1
  1316	2	-13.3089	-18.2662	-18.0014	C.1
  1317	1	 18.0688	-8.49104	-11.0524	N.3
  1318	2	 18.3925	-7.43539	-11.0934	C.1
  1319	2	 18.8038	-8.00433	-11.7186	C.1
  1320	2	  16.969	-8.42126	-11.1326	C.1
  1321	2	 17.3802	-8.99021	-11.7577	C.1
  1322	2	  18.228	-8.76305	-9.99335	C.1
  1323	2	 18.6392	  -9.332	-10.6185	C.1
  1324	1	 -11.575	 16.8832	-16.4817	N.3
  1325	2	-12.0126	 17.4978	-15.6745	C.1
  1326	2	-12.6083	  17.255	-16.3599	C.1
  1327	2	-11.1169	 16.0386	-15.9361	C.1
  1328	2	-11.7127	 15.7958	-16.6215	C.1
  1329	2	-10.7018	 17.4773	-16.8065	C.1
  1330	2	-11.2975	 17.2345	-17.4919	C.1
  1331	1	 8.87259	 -15.086	 4.76766	N.3
  1332	2	 9.46496	-15.5409	 5.58193	C.1
  1333	2	 8.76833	 -16.076	 5.24723	C.1
  1334	2	 9.64053	-14.7972	 4.02758	C.1
  1335	2	 8.94389	-15.3322	 3.69288	C.1
  1336	2	 8.55723	-14.1173	 5.19551	C.1
  1337	2	 7.86059	-14.6524	 4.86081	C.1
  1338	1	-7.48066	 17.0296	-18.0088	N.3
  1339	2	-7.96963	 17.8225	-17.4146	C.1
  1340	2	-7.06368	 17.9738	-17.6146	C.1
  1341	2	 -8.1445	 16.9255	-18.8859	C.1
  1342	2	-7.23856	 17.0768	-19.0859	C.1
  1343	2	-7.68677	 16.1138	 -17.426	C.1
  1344	2	-6.78083	 16.2651	-17.6259	C.1
  1345	1	 16.3559	-3.25068	   16.41	N.3
  1346	2	 16.3098	-4.18224	 15.8176	C.1
  1347	2	 17.1478	-3.75639	 15.8286	C.1
  1348	2	 15.9735	-3.56115	 17.3991	C.1
  1349	2	 16.8115	 -3.1353	   17.41	C.1
  1350	2	 15.5275	-2.64742	  15.997	C.1
  1351	2	 16.3654	-2.22157	 16.0079	C.1
  1352	1	 6.52587	 7.85981	-8.37494	N.3
  1353	2	  7.3891	 8.39908	-8.80495	C.1
  1354	2	 7.21386	 7.55735	-9.18492	C.1
  1355	2	 5.70344	 8.59309	 -8.4573	C.1
  1356	2	  5.5282	 7.75135	-8.83728	C.1
  1357	2	 6.74791	 7.84987	 -7.2926	C.1
  1358	2	 6.57267	 7.00814	-7.67257	C.1
  1359	1	 17.8835	 8.75063	-8.46044	N.3
  1360	2	 17.0833	 8.50396	-7.73952	C.1
  1361	2	 17.1064	 7.96672	-8.51051	C.1
  1362	2	 18.7983	 8.72386	-7.84135	C.1
  1363	2	 18.8214	 8.18662	-8.61234	C.1
  1364	2	 17.7342	 9.82993	-8.64397	C.1
  1365	2	 17.7573	 9.29269	-9.41497	C.1
  1366	1	-5.68748	-1.17118	 9.98071	N.3
  1367	2	-4.96968	-1.57973	 9.24672	C.1
  1368	2	-5.75754	-2.08047	 9.35687	C.1
  1369	2	-5.83555	-0.131428	 9.63742	C.1
  1370	2	-6.62341	-0.632168	 9.74757	C.1
  1371	2	-5.07542	-1.05127	 10.8928	C.1
  1372	2	-5.86328	-1.55201	 11.0029	C.1
  1373	1	-13.8348	-1.75229	-10.2552	N.3
  1374	2	-13.1863	-1.78268	-11.1493	C.1
  1375	2	-13.4844	-2.61986	 -10.843	C.1
  1376	2	-14.6336	-1.04667	-10.5464	C.1
  1377	2	-14.9318	-1.88385	-10.2401	C.1
  1378	2	-13.2373	-1.17175	 -9.5294	C.1
  1379	2	-13.5354	-2.00893	-9.22304	C.1
  1380	1	 17.3021	 -14.927	 -15.649	N.3
  1381	2	 17.3755	-13.8377	-15.8187	C.1
  1382	2	 17.6451	 -14.374	 -16.542	C.1
  1383	2	 16.2534	-15.0626	-15.3286	C.1
  1384	2	 16.5229	 -15.599	-16.0519	C.1
  1385	2	 17.8729	-15.0763	-14.7149	C.1
  1386	2	 18.1425	-15.6126	-15.4382	C.1
  1387	1	0.550562	 10.5422	-8.19188	N.3
  1388	2	0.248449	 11.5952	-8.04806	C.1
  1389	2	-0.252781	 11.1189	 -8.6848	C.1
  1390	2	0.522919	 10.1293	-7.16738	C.1
  1391	2	0.0216885	 9.65292	-7.80412	C.1
  1392	2	 1.63216	 10.6166	 -8.4051	C.1
  1393	2	 1.13093	 10.1402	-9.04184	C.1
  1394	1	-3.89814	-13.0957	 11.2179	N.3
  1395	2	-3.19002	-13.6068	  10.541	C.1
  1396	2	-3.67807	-12.9037	 10.1523	C.1
  1397	2	-3.26465	-12.8095	 12.0768	C.1
  1398	2	 -3.7527	-12.1064	 11.6881	C.1
  1399	2	-4.50767	-13.9254	 11.6191	C.1
  1400	2	-4.99571	-13.2223	 11.2304	C.1
  1401	1	 10.0902	-5.65175	-13.8089	N.3
  1402	2	 10.8078	 -6.1969	-14.4483	C.1
  1403	2	 10.9736	-5.27623	-14.3563	C.1
  1404	2	 10.1032	-6.22822	-12.8664	C.1
  1405	2	  10.269	-5.30755	-12.7743	C.1
  1406	2	 9.11101	-5.91114	-14.2502	C.1
  1407	2	 9.27682	-4.99047	-14.1581	C.1
  1408	1	 8.07986	 -7.4727	-12.5447	N.3
  1409	2	 9.14451	-7.76512	-12.5882	C.1
  1410	2	 8.76942	-7.49783	-13.4077	C.1
  1411	2	 8.06034	-6.70816	-11.7472	C.1
  1412	2	 7.68524	-6.44088	-12.5666	C.1
  1413	2	 7.59737	-8.34574	-12.0694	C.1
  1414	2	 7.22227	-8.07845	-12.8888	C.1
  1415	1	 12.6015	 13.8993	 17.2652	N.3
  1416	2	 12.4013	 13.2277	 18.1194	C.1
  1417	2	 11.7735	 13.9164	 17.9967	C.1
  1418	2	 12.7064	 13.2019	 16.4147	C.1
  1419	2	 12.0787	 13.8907	 16.2919	C.1
  1420	2	 13.6386	 14.2353	 17.4458	C.1
  1421	2	 13.0108	 14.9241	  17.323	C.1
  1422	1	-15.0539	 10.5554	 1.91368	N.3
  1423	2	-14.8472	 9.63578	 2.49021	C.1
  1424	2	-14.6186	 10.4386	  2.9225	C.1
  1425	2	-16.1214	 10.4523	 1.64779	C.1
  1426	2	-15.8928	 11.2551	 2.08008	C.1
  1427	2	-14.5361	 10.3741	0.954604	C.1
  1428	2	-14.3075	 11.1769	 1.38689	C.1
  1429	1	 11.2604	0.0810578	  7.9774	N.3
  1430	2	 11.6138	0.757347	 7.17822	C.1
  1431	2	   11.01	0.0922174	 6.90126	C.1
  1432	2	 10.8743	0.776425	 8.74435	C.1
  1433	2	 10.2706	0.111295	 8.46739	C.1
  1434	2	 12.1989	-0.292904	 8.42506	C.1
  1435	2	 11.5951	-0.958034	  8.1481	C.1
  1436	1	-0.44026	 6.49552	 8.89097	N.3
  1437	2	-0.649153	 5.82505	 9.74405	C.1
  1438	2	-1.03559	 5.56539	 8.92744	C.1
  1439	2	0.662495	 6.56465	 8.88816	C.1
  1440	2	0.276059	 6.30498	 8.07156	C.1
  1441	2	-0.75447	 7.48637	 9.26561	C.1
  1442	2	-1.14091	  7.2267	 8.44901	C.1
  1443	1	  15.688	  2.3975	-12.7563	N.3
  1444	2	 16.6856	 2.87137	-12.7206	C.1
  1445	2	 16.6517	 1.98667	-12.4047	C.1
  1446	2	 15.3817	 2.53271	-13.8092	C.1
  1447	2	 15.3478	 1.64801	-13.4934	C.1
  1448	2	 15.0477	 3.11547	-12.2128	C.1
  1449	2	 15.0138	 2.23077	-11.8969	C.1
  1450	1	 -7.2236	-3.82123	-6.38342	N.3
  1451	2	-6.96743	-3.65046	-5.32223	C.1
  1452	2	-6.28395	-3.45036	-5.93575	C.1
  1453	2	-8.15645	 -3.2437	-6.51418	C.1
  1454	2	-7.47297	 -3.0436	 -7.1277	C.1
  1455	2	-7.57214	 -4.8697	-6.39357	C.1
  1456	2	-6.88865	-4.66959	-7.00709	C.1
  1457	1	 8.71029	 15.4378	 18.6491	N.3
  1458	2	 9.07166	 14.4631	 18.2744	C.1
  1459	2	 9.74142	 15.1025	 18.4364	C.1
  1460	2	 8.10262	 15.1604	 19.5293	C.1
  1461	2	 8.77237	 15.7998	 19.6912	C.1
  1462	2	 7.95196	 15.7307	 17.9008	C.1
  1463	2	 8.62172	   16.37	 18.0627	C.1
  1464	1	 18.9218	-8.94171	-15.7379	N.3
  1465	2	 19.9276	-9.39517	-15.7991	C.1
  1466	2	 19.5841	-9.30004	-14.9293	C.1
  1467	2	 18.3186	-9.57292	-16.4151	C.1
  1468	2	 17.9751	-9.47779	-15.5453	C.1
  1469	2	 19.0346	-7.99974	-16.3044	C.1
  1470	2	 18.6911	-7.90462	-15.4346	C.1
  1471	1	0.102705	-0.525215	-8.27599	N.3
  1472	2	-0.073416	0.524011	-8.57433	C.1
  1473	2	-0.847685	-0.00122422	-8.48358	C.1
  1474	2	0.714828	-0.428365	-7.36123	C.1
  1475	2	-0.0594412	 -0.9536	-7.27048	C.1
  1476	2	0.828106	-0.883438	-9.02853	C.1
  1477	2	0.0538374	-1.40867	-8.93778	C.1
  1478	1	-10.0161	-4.82829	 -14.856	N.3
  1479	2	-9.08209	-5.41121	-14.7631	C.1
  1480	2	-9.08925	-4.59143	-14.3032	C.1
  1481	2	 -10.795	-5.54803	-14.5458	C.1
  1482	2	-10.8022	-4.72825	-14.0859	C.1
  1483	2	-10.1606	 -4.7553	 -15.949	C.1
  1484	2	-10.1678	-3.93551	-15.4891	C.1
  1485	1	 10.0892	 2.85828	 13.1579	N.3
  1486	2	  9.0455	 3.17106	 13.3415	C.1
  1487	2	 9.29212	 2.35232	 13.7319	C.1
  1488	2	 10.6771	 3.73309	 13.4894	C.1
  1489	2	 10.9237	 2.91436	 13.8799	C.1
  1490	2	 10.1751	 2.89879	  12.057	C.1
  1491	2	 10.4217	 2.08005	 12.4475	C.1
  1492	1	-3.07432	 -3.9485	 9.66423	N.3
  1493	2	-3.29008	-3.41383	 8.72164	C.1
  1494	2	-3.87777	-3.22671	 9.43102	C.1
  1495	2	-2.01376	-3.70484	 9.85578	C.1
  1496	2	-2.60145	-3.51772	 10.5652	C.1
  1497	2	 -3.0376	-5.00752	 9.35121	C.1
  1498	2	-3.62528	 -4.8204	 10.0606	C.1
  1499	1	-17.4305	-11.1308	-0.231477	N.3
  1500	2	-16.5888	 -10.627	-0.739941	C.1
  1501	2	-16.5956	-11.5643	-0.81098	C.1
  1502	2	-18.3183	-10.6215	-0.64767	C.1
  1503	2	-18.3251	-11.5587	-0.718709	C.1
  1504	2	-17.3743	 -10.738	0.799738	C.1
  1505	2	-17.3811	-11.6753	0.728698	C.1
  1506	1	 10.9171	 6.88753	 11.7816	N.3
  1507	2	 9.94064	 7.34849	 12.0161	C.1
  1508	2	 10.2203	  6.6786	 12.6133	C.1
  1509	2	 11.5939	  7.7571	 11.7003	C.1
  1510	2	 11.8735	 7.08721	 12.2975	C.1
  1511	2	 10.7972	 6.56184	 10.7326	C.1
  1512	2	 11.0769	 5.89195	 11.3298	C.1
  1513	1	-12.8664	-14.0638	  11.762	N.3
  1514	2	-12.5779	-13.7105	 10.7556	C.1
  1515	2	-11.8858	-14.1052	 11.2544	C.1
  1516	2	-13.7333	-14.7187	 11.5609	C.1
  1517	2	-13.0412	-15.1134	 12.0597	C.1
  1518	2	-13.3261	-13.1702	 12.2213	C.1
  1519	2	 -12.634	-13.5649	 12.7201	C.1
  1520	1	-7.96528	 -5.1788	 14.3575	N.3
  1521	2	-7.13682	-5.74428	  14.821	C.1
  1522	2	-7.65817	-6.22955	 14.2075	C.1
  1523	2	-7.46173	-4.28649	 13.9439	C.1
  1524	2	-7.98308	-4.77176	 13.3305	C.1
  1525	2	-8.51528	-4.77772	 15.2279	C.1
  1526	2	-9.03662	-5.26299	 14.6144	C.1
  1527	1	-4.09482	 9.42576	-13.9861	N.3
  1528	2	-3.69754	 10.0608	-14.7983	C.1
  1529	2	 -4.3467	 10.4678	-14.2538	C.1
  1530	2	-3.18344	 9.08947	-13.4596	C.1
  1531	2	 -3.8326	 9.49643	-12.9151	C.1
  1532	2	-4.42974	 8.51655	-14.5171	C.1
  1533	2	 -5.0789	 8.92351	-13.9726	C.1
  1534	1	 -6.4426	 2.96552	-14.5555	N.3
  1535	2	-7.35591	 3.53373	-14.3027	C.1
  1536	2	-7.03447	  3.6617	-15.1767	C.1
  1537	2	-6.71435	  1.9249	-14.3023	C.1
  1538	2	-6.39291	 2.05286	-15.1763	C.1
  1539	2	 -5.7397	 3.24599	-13.7504	C.1
  1540	2	-5.41825	 3.37396	-14.6244	C.1
  1541	1	-12.1574	 5.81932	0.0575749	N.3
  1542	2	-12.8577	 5.59957	0.883531	C.1
  1543	2	-12.0177	 5.92826	 1.14823	C.1
  1544	2	-12.7409	 6.49258	-0.595947	C.1
  1545	2	 -11.901	 6.82127	-0.331247	C.1
  1546	2	-12.1335	 4.87276	-0.511909	C.1
  1547	2	-11.2936	 5.20145	-0.247209	C.1
  1548	1	 11.7124	 1.56799	-11.5046	N.3
  1549	2	 11.3529	 1.83238	-10.4938	C.1
  1550	2	 11.7415	  2.5386	-10.9774	C.1
  1551	2	 10.8253	 1.10782	-11.9759	C.1
  1552	2	 11.2138	 1.81405	-12.4595	C.1
  1553	2	 12.3762	0.704438	-11.3188	C.1
  1554	2	 12.7647	 1.41066	-11.8024	C.1
  1555	1	-6.31047	 3.38123	 13.9038	N.3
  1556	2	-5.40751	 3.32393	 13.2695	C.1
  1557	2	-5.69654	 2.50472	 13.6286	C.1
  1558	2	-7.04282	 3.89445	 13.2548	C.1
  1559	2	-7.33185	 3.07524	 13.6139	C.1
  1560	2	-6.04754	 4.15414	 14.6483	C.1
  1561	2	-6.33657	 3.33493	 15.0074	C.1
  1562	1	 9.70055	  15.539	-2.35729	N.3
  1563	2	 8.61477	 15.4804	-2.16093	C.1
  1564	2	 9.16061	 15.4701	-1.39572	C.1
  1565	2	 9.79466	 16.4402	-2.98958	C.1
  1566	2	 10.3405	 16.4298	-2.22437	C.1
  1567	2	 9.87346	 14.7118	-3.06918	C.1
  1568	2	 10.4193	 14.7015	-2.30397	C.1
  1569	1	-14.5831	-13.5273	 9.63748	N.3
  1570	2	 -15.292	-13.7656	 10.4509	C.1
  1571	2	 -14.445	-14.1657	 10.5287	C.1
  1572	2	-14.5812	-12.4226	 9.61963	C.1
  1573	2	-13.7341	-12.8227	 9.69748	C.1
  1574	2	-15.1467	-13.7937	 8.72516	C.1
  1575	2	-14.2997	-14.1938	 8.80301	C.1
  1576	1	 11.4193	 2.75169	 10.5573	N.3
  1577	2	 12.1707	  3.0656	 9.81051	C.1
  1578	2	 11.8963	 3.73715	 10.4083	C.1
  1579	2	 11.8843	 1.86606	 11.0267	C.1
  1580	2	 11.6099	 2.53762	 11.6244	C.1
  1581	2	 10.6145	 2.31607	 9.93821	C.1
  1582	2	 10.3401	 2.98763	  10.536	C.1
  1583	1	-15.1412	 4.02677	 12.6427	N.3
  1584	2	-15.3311	 3.61944	 13.6521	C.1
  1585	2	 -14.856	 3.05035	 13.0742	C.1
  1586	2	-14.6565	 4.99795	 12.8493	C.1
  1587	2	-14.1814	 4.42887	 12.2714	C.1
  1588	2	-16.1487	 4.31655	 12.2936	C.1
  1589	2	-15.6736	 3.74746	 11.7157	C.1
  1590	1	-5.66376	-15.0052	  3.9991	N.3
  1591	2	-5.56847	-15.9871	 4.49678	C.1
  1592	2	 -4.9269	-15.8115	 3.83258	C.1
  1593	2	-5.67224	-14.2934	 4.84419	C.1
  1594	2	-5.03066	-14.1179	 4.17998	C.1
  1595	2	-6.71294	-14.9984	 3.65262	C.1
  1596	2	-6.07136	-14.8228	 2.98842	C.1
  1597	1	 18.2545	 7.94228	 18.3726	N.3
  1598	2	 18.0136	   7.276	 17.5247	C.1
  1599	2	  17.415	 7.98879	 17.6557	C.1
  1600	2	 19.3003	 8.23753	 18.1727	C.1
  1601	2	 18.7017	 8.95032	 18.3037	C.1
  1602	2	 18.3475	 7.24412	  19.224	C.1
  1603	2	 17.7488	 7.95691	 19.3549	C.1
  1604	1	 12.0128	   9.273	 4.82775	N.3
  1605	2	 12.0512	   8.252	 4.40705	C.1
  1606	2	 12.8849	 8.62317	 4.63247	C.1
  1607	2	 11.3002	 9.17402	 5.66633	C.1
  1608	2	 12.1339	  9.5452	 5.89176	C.1
  1609	2	 11.4366	  9.8362	 4.07173	C.1
  1610	2	 12.2702	 10.2074	 4.29716	C.1
  1611	1	 9.22623	-6.33534	 14.7473	N.3
  1612	2	  10.316	-6.51788	 14.7417	C.1
  1613	2	 9.94633	-6.27895	 13.9111	C.1
  1614	2	 9.09951	-5.58749	 15.5507	C.1
  1615	2	 8.72986	-5.34856	 14.7201	C.1
  1616	2	 8.81768	-7.25904	 15.1953	C.1
  1617	2	 8.44804	-7.02011	 14.3647	C.1
  1618	1	-6.47931	 14.1016	 16.7169	N.3
  1619	2	-7.16021	 14.1916	 15.8514	C.1
  1620	2	-7.58195	 14.1681	 16.6911	C.1
  1621	2	-5.77162	 14.9372	 16.5696	C.1
  1622	2	-6.19336	 14.9137	 17.4093	C.1
  1623	2	-5.87351	 13.2111	 16.4702	C.1
  1624	2	-6.29525	 13.1876	 17.3099	C.1
  1625	1	-9.20288	 19.1306	-15.1081	N.3
  1626	2	-9.11952	 18.4167	 -14.269	C.1
  1627	2	-9.94104	 18.8696	-14.3285	C.1
  1628	2	-8.93946	 18.5173	-15.9887	C.1
  1629	2	-9.76098	 18.9703	-16.0482	C.1
  1630	2	-8.31737	 19.7785	-14.9775	C.1
  1631	2	 -9.1389	 20.2314	-15.0371	C.1
  1632	1	 19.6642	-3.65031	 17.9207	N.3
  1633	2	 19.7302	-4.26954	 18.8334	C.1
  1634	2	 20.2819	-3.50845	 18.8258	C.1
  1635	2	 18.5818	 -3.4472	  17.831	C.1
  1636	2	 19.1334	-2.68611	 17.8234	C.1
  1637	2	 19.8531	-4.37582	  17.109	C.1
  1638	2	 20.4048	-3.61473	 17.1014	C.1
  1639	1	 19.6846	 1.00102	-15.7084	N.3
  1640	2	 19.9006	0.124109	-15.0718	C.1
  1641	2	 20.3845	0.162743	-15.8768	C.1
  1642	2	 19.8413	 1.85448	-15.0244	C.1
  1643	2	 20.3252	 1.89312	-15.8294	C.1
  1644	2	  18.586	 0.96653	-15.8216	C.1
  1645	2	 19.0699	 1.00516	-16.6266	C.1
  1646	1	 -9.5307	 11.6741	-0.27718	N.3
  1647	2	-9.72176	 11.7823	0.805728	C.1
  1648	2	-9.40211	 12.5553	0.376918	C.1
  1649	2	-10.4889	 11.2837	-0.664954	C.1
  1650	2	-10.1692	 12.0567	-1.09376	C.1
  1651	2	-8.86098	 10.7968	 -0.3291	C.1
  1652	2	-8.54132	 11.5698	-0.75791	C.1
  1653	1	 4.51952	  2.7124	-0.852532	N.3
  1654	2	 4.85938	 3.75976	-0.944314	C.1
  1655	2	 4.96242	 3.23666	-1.71849	C.1
  1656	2	 3.48106	 2.81473	-0.489217	C.1
  1657	2	  3.5841	 2.29163	-1.26339	C.1
  1658	2	 5.06355	 2.34735	0.0372006	C.1
  1659	2	 5.16659	 1.82425	-0.736977	C.1
  1660	1	 12.3097	-7.88912	 11.2203	N.3
  1661	2	 12.4146	 -8.9809	 11.0864	C.1
  1662	2	 11.5722	-8.69432	 11.3897	C.1
  1663	2	 12.6193	-7.48357	 10.2403	C.1
  1664	2	  11.777	-7.19699	 10.5435	C.1
  1665	2	 13.1587	-7.63276	 11.8794	C.1
  1666	2	 12.3164	-7.34618	 12.1826	C.1
  1667	1	  7.1386	-2.12345	-12.3659	N.3
  1668	2	 7.68868	-1.94699	 -11.424	C.1
  1669	2	 6.99889	-2.58336	 -11.371	C.1
  1670	2	 7.94174	-2.35984	 -13.087	C.1
  1671	2	 7.25194	-2.99622	-13.0339	C.1
  1672	2	 6.82007	-1.10897	-12.6662	C.1
  1673	2	 6.13028	-1.74534	-12.6132	C.1
  1674	1	 6.70102	-3.80475	 19.9378	N.3
  1675	2	  5.8653	-4.48782	 19.7013	C.1
  1676	2	 6.46632	-4.33208	 18.9956	C.1
  1677	2	 7.14617	-4.25433	 20.8436	C.1
  1678	2	 7.74719	-4.09859	 20.1378	C.1
  1679	2	 6.19005	-2.90571	  20.327	C.1
  1680	2	 6.79107	-2.74998	 19.6212	C.1
  1681	1	 -10.314	-8.57388	-18.0576	N.3
  1682	2	-9.49282	-9.30621	-17.9562	C.1
  1683	2	 -9.2265	-8.43782	-18.1982	C.1
  1684	2	-10.8422	-8.65105	-17.0902	C.1
  1685	2	-10.5759	-7.78265	-17.3322	C.1
  1686	2	-11.0064	-9.06698	-18.7635	C.1
  1687	2	-10.7401	-8.19859	-19.0055	C.1
  1688	1	 6.53145	-19.2848	-3.95585	N.3
  1689	2	 6.61661	-18.4151	-4.63206	C.1
  1690	2	 7.38103	-18.9599	-4.58323	C.1
  1691	2	 5.61524	 -19.791	 -4.3096	C.1
  1692	2	 6.37965	-20.3359	-4.26076	C.1
  1693	2	 6.21588	-18.8309	-2.99914	C.1
  1694	2	 6.98029	-19.3758	-2.95031	C.1
  1695	1	 6.99574	 11.4188	-1.68709	N.3
  1696	2	 7.70096	 10.6701	-2.09075	C.1
  1697	2	 6.98412	 10.8905	-2.65746	C.1
  1698	2	 7.65364	 12.2626	-1.41151	C.1
  1699	2	  6.9368	 12.4831	-1.97822	C.1
  1700	2	 6.70787	 10.9931	-0.708944	C.1
  1701	2	 5.99103	 11.2135	-1.27566	C.1
  1702	1	-0.237945	 4.17899	 4.41047	N.3
  1703	2	0.357941	 3.38536	 4.89623	C.1
  1704	2	-0.42521	  3.6336	 5.35301	C.1
  1705	2	 -0.3936	 3.78838	 3.38868	C.1
  1706	2	-1.17675	 4.03663	 3.84546	C.1
  1707	2	0.496549	 4.99086	 4.26132	C.1
  1708	2	-0.286601	 5.23911	 4.71811	C.1
  1709	1	-0.462188	-6.70949	 5.81048	N.3
  1710	2	-0.209817	-6.90411	 4.75249	C.1
  1711	2	0.0429446	-6.05802	 5.07473	C.1
  1712	2	-0.0110364	-7.56803	 6.33984	C.1
  1713	2	0.241725	-6.72194	 6.66207	C.1
  1714	2	-1.54485	-6.92546	 5.85575	C.1
  1715	2	-1.29209	-6.07937	 6.17799	C.1
  1716	1	 -18.326	-11.5284	  14.006	N.3
  1717	2	-17.3764	-11.1572	 13.5801	C.1
  1718	2	-17.3796	-12.0667	 13.8176	C.1
  1719	2	 -19.074	-11.2384	 13.2462	C.1
  1720	2	-19.0773	-12.1478	 13.4838	C.1
  1721	2	-18.5227	-10.8252	 14.8353	C.1
  1722	2	 -18.526	-11.7347	 15.0729	C.1
  1723	1	 4.82945	-17.1362	 11.8323	N.3
  1724	2	 4.24179	-16.2412	 12.1055	C.1
  1725	2	 3.78676	-16.8729	 11.5786	C.1
  1726	2	 5.18913	-17.5097	  12.808	C.1
  1727	2	  4.7341	-18.1413	 12.2812	C.1
  1728	2	 5.73999	-16.7102	 11.3737	C.1
  1729	2	 5.28496	-17.3418	 10.8469	C.1
  1730	1	 18.2295	-12.7808	-3.75357	N.3
  1731	2	 18.9989	-12.6055	-2.98018	C.1
  1732	2	 19.3306	-12.8325	-3.82993	C.1
  1733	2	 17.6205	-11.8595	-3.71744	C.1
  1734	2	 17.9522	-12.0865	-4.56719	C.1
  1735	2	 17.5715	-13.5368	-3.28846	C.1
  1736	2	 17.9031	-13.7638	-4.13821	C.1
  1737	1	 3.23317	-6.42713	 5.45229	N.3
  1738	2	 4.31428	 -6.2039	 5.40464	C.1
  1739	2	 3.81511	-5.92479	 4.65863	C.1
  1740	2	 2.92582	-5.98314	 6.41627	C.1
  1741	2	 2.42665	-5.70403	 5.67026	C.1
  1742	2	 3.20816	-7.51302	 5.65497	C.1
  1743	2	 2.70899	-7.23391	 4.90896	C.1
  1744	1	-19.6333	 10.2804	-15.4858	N.3
  1745	2	-18.6151	 10.7091	-15.4641	C.1
  1746	2	-18.6707	 9.82663	-15.7831	C.1
  1747	2	 -20.209	 11.0261	-16.0632	C.1
  1748	2	-20.2646	 10.1436	-16.3822	C.1
  1749	2	-19.9923	 10.4299	-14.4516	C.1
  1750	2	-20.0479	 9.54738	-14.7706	C.1
  1751	1	 18.5058	-10.7085	 2.75968	N.3
  1752	2	 18.7808	-10.2106	 1.81235	C.1
  1753	2	 17.8575	-10.2774	 1.97558	C.1
  1754	2	 19.0773	-10.1428	 3.51747	C.1
  1755	2	  18.154	-10.2096	 3.68069	C.1
  1756	2	 19.0441	-11.6718	 2.70437	C.1
  1757	2	 18.1208	-11.7385	  2.8676	C.1
  1758	1	 13.6147	-5.09721	-1.16339	N.3
  1759	2	 14.2058	-5.93226	-0.745933	C.1
  1760	2	 13.3078	-6.13419	-0.936777	C.1
  1761	2	 14.2172	-4.76968	-2.02978	C.1
  1762	2	 13.3192	-4.97162	-2.22062	C.1
  1763	2	 13.7682	-4.28679	-0.428191	C.1
  1764	2	 12.8702	-4.48873	-0.619036	C.1
  1765	1	-19.7704	 18.0375	-6.65232	N.3
  1766	2	-19.8509	 18.7616	-7.48306	C.1
  1767	2	 -19.802	 19.1416	-6.62472	C.1
  1768	2	-18.9034	 17.4166	-6.94152	C.1
  1769	2	-18.8545	 17.7967	-6.08318	C.1
  1770	2	-20.6303	 17.3642	-6.81989	C.1
  1771	2	-20.5814	 17.7442	-5.96155	C.1
  1772	1	 18.2399	  19.821	 11.0949	N.3
  1773	2	 19.0803	 19.7985	 10.3778	C.1
  1774	2	 18.5504	 20.5744	 10.3486	C.1
  1775	2	 18.7303	  19.623	  12.065	C.1
  1776	2	 18.2004	 20.3988	 12.0358	C.1
  1777	2	  17.704	 18.8776	 10.8856	C.1
  1778	2	 17.1741	 19.6535	 10.8564	C.1
  1779	1	 13.8535	-9.21991	 1.65953	N.3
  1780	2	 14.6717	-9.07906	0.930424	C.1
  1781	2	 13.8647	 -8.6483	0.713995	C.1
  1782	2	 14.3109	-8.90821	 2.61582	C.1
  1783	2	 13.5039	-8.47745	 2.39939	C.1
  1784	2	 13.7884	-10.3186	 1.75698	C.1
  1785	2	 12.9814	-9.88784	 1.54055	C.1
  1786	1	  7.0198	 4.82593	-0.111453	N.3
  1787	2	 6.10674	 5.42864	0.0433734	C.1
  1788	2	 6.38956	 4.93231	0.789874	C.1
  1789	2	 7.74951	 5.56511	-0.488277	C.1
  1790	2	 8.03233	 5.06877	0.258223	C.1
  1791	2	 6.77891	 4.22855	-1.00921	C.1
  1792	2	 7.06173	 3.73221	-0.262706	C.1
  1793	1	 9.89546	 8.95446	-17.6362	N.3
  1794	2	 9.15284	 9.33773	-16.9133	C.1
  1795	2	 9.28548	 8.40732	-16.8949	C.1
  1796	2	 10.7934	 9.56155	-17.4217	C.1
  1797	2	  10.926	 8.63114	-17.4033	C.1
  1798	2	  9.5412	 9.35973	-18.6011	C.1
  1799	2	 9.67383	 8.42932	-18.5827	C.1
  1800	1	  6.9287	 -11.518	 1.93412	N.3
  1801	2	 7.51235	-10.8584	  1.2669	C.1
  1802	2	 7.96404	-11.6274	 1.56397	C.1
  1803	2	 6.00594	-11.7084	 1.35697	C.1
  1804	2	 6.45762	-12.4774	 1.65404	C.1
  1805	2	 6.59028	-10.8336	 2.73289	C.1
  1806	2	 7.04197	-11.6026	 3.02996	C.1
  1807	1	 3.74244	  10.329	 10.0941	N.3
  1808	2	 3.66994	 11.3585	 10.4887	C.1
  1809	2	 3.10643	 11.1688	  9.7607	C.1
  1810	2	 3.57977	 9.70308	   10.99	C.1
  1811	2	 3.01627	 9.51332	  10.262	C.1
  1812	2	 4.82288	 10.2101	 9.89572	C.1
  1813	2	 4.25937	 10.0203	 9.16767	C.1
  1814	1	 11.7731	 -1.2333	 -19.665	N.3
  1815	2	 11.9289	-0.146727	-19.5385	C.1
  1816	2	 11.2182	-0.509254	-19.0415	C.1
  1817	2	  12.768	-1.65882	-19.4416	C.1
  1818	2	 12.0573	-2.02135	-18.9445	C.1
  1819	2	 11.6884	-1.35056	-20.7604	C.1
  1820	2	 10.9777	-1.71309	-20.2633	C.1
  1821	1	 18.5473	-4.81746	 6.63528	N.3
  1822	2	 19.0897	-4.07281	 7.24537	C.1
  1823	2	 18.2715	-4.36458	 7.60468	C.1
  1824	2	 19.3002	-5.61035	 6.47623	C.1
  1825	2	  18.482	-5.90212	 6.83553	C.1
  1826	2	 18.4792	-4.33156	 5.64526	C.1
  1827	2	 17.6611	-4.62333	 6.00457	C.1
  1828	1	-0.860009	 -6.4923	 1.16381	N.3
  1829	2	-0.825452	-5.48713	0.706259	C.1
  1830	2	-0.999783	-5.50025	 1.62986	C.1
  1831	2	0.103216	-6.94096	0.860902	C.1
  1832	2	-0.0711145	-6.95407	  1.7845	C.1
  1833	2	 -1.5963	-7.02912	0.538865	C.1
  1834	2	-1.77063	-7.04224	 1.46246	C.1
  1835	1	-14.4043	-10.4134	 16.0669	N.3
  1836	2	-13.3765	-10.5666	 16.4425	C.1
  1837	2	-13.6286	-9.66908	 16.3224	C.1
  1838	2	-15.0228	-10.9834	 16.7834	C.1
  1839	2	-15.2749	-10.0858	 16.6633	C.1
  1840	2	-14.4355	-11.0364	 15.1549	C.1
  1841	2	-14.6876	-10.1388	 15.0348	C.1
  1842	1	-7.90605	 4.53635	-5.35593	N.3
  1843	2	-8.66495	 5.11301	-5.91489	C.1
  1844	2	-7.90703	 4.86294	-6.41151	C.1
  1845	2	-8.48764	 3.69807	 -4.9318	C.1
  1846	2	-7.72973	   3.448	-5.42841	C.1
  1847	2	-7.70243	 5.17308	-4.47618	C.1
  1848	2	-6.94451	 4.92301	-4.97279	C.1
  1849	1	0.780403	-2.75201	 8.80189	N.3
  1850	2	 1.54523	-3.26844	 9.40954	C.1
  1851	2	 1.69623	 -3.2809	 8.48183	C.1
  1852	2	0.733098	-1.74623	  9.2569	C.1
  1853	2	  0.8841	 -1.7587	 8.32919	C.1
  1854	2	-0.163618	-3.22265	 9.13078	C.1
  1855	2	-0.0126166	-3.23512	 8.20307	C.1
  1856	1	 4.88656	-19.5253	 9.61307	N.3
  1857	2	 3.88721	-19.0654	 9.71603	C.1
  1858	2	 4.46187	-18.9415	 10.4495	C.1
  1859	2	 5.25433	-19.1184	  8.6539	C.1
  1860	2	   5.829	-18.9946	  9.3874	C.1
  1861	2	 4.65615	-20.5781	 9.36905	C.1
  1862	2	 5.23081	-20.4542	 10.1025	C.1
  1863	1	 5.31743	0.599932	  5.0877	N.3
  1864	2	 4.65249	 1.48159	 5.04983	C.1
  1865	2	 4.21371	0.650736	 5.07698	C.1
  1866	2	 5.97206	0.814183	 5.95165	C.1
  1867	2	 5.53327	-0.0166764	  5.9788	C.1
  1868	2	 5.98592	0.750307	 4.22088	C.1
  1869	2	 5.54713	-0.0805519	 4.24803	C.1
  1870	1	 14.7396	-3.11151	 3.93132	N.3
  1871	2	 14.8762	-2.45243	  4.8076	C.1
  1872	2	 14.0131	-2.44864	  4.4351	C.1
  1873	2	 15.0893	-4.09374	 4.29706	C.1
  1874	2	 14.2263	-4.08994	 3.92456	C.1
  1875	2	 15.5478	-2.79404	 3.24805	C.1
  1876	2	 14.6847	-2.79025	 2.87555	C.1
  1877	1	-14.0711	 6.26839	-7.57799	N.3
  1878	2	-14.5813	 5.56067	-8.25602	C.1
  1879	2	-15.0281	 5.73192	-7.44693	C.1
  1880	2	-13.9014	 7.15324	-8.21762	C.1
  1881	2	-14.3483	 7.32448	-7.40853	C.1
  1882	2	-13.0603	 5.83441	-7.47397	C.1
  1883	2	-13.5071	 6.00565	-6.66488	C.1
  1884	1	 -7.2286	-0.671768	-4.47992	N.3
  1885	2	 -7.2685	-0.241242	-5.49676	C.1
  1886	2	-7.01266	-1.14479	-5.45487	C.1
  1887	2	-8.23034	 -0.4475	-4.07118	C.1
  1888	2	 -7.9745	-1.35104	-4.02929	C.1
  1889	2	-6.57071	0.0287537	-3.93466	C.1
  1890	2	-6.31487	-0.87479	-3.89277	C.1
  1891	1	-8.47083	 15.3251	 -2.9147	N.3
  1892	2	-8.40783	 16.1305	-3.66859	C.1
  1893	2	-8.90659	 16.3404	-2.89998	C.1
  1894	2	-7.41218	 15.0668	-2.73197	C.1
  1895	2	-7.91095	 15.2767	-1.96336	C.1
  1896	2	-8.84433	 14.4632	-3.49646	C.1
  1897	2	 -9.3431	 14.6731	-2.72785	C.1
  1898	1	 -14.551	-16.3926	-7.35715	N.3
  1899	2	 -14.168	-17.2947	 -7.8675	C.1
  1900	2	 -15.104	-17.2408	-7.79957	C.1
  1901	2	-14.0716	-15.5659	-7.91177	C.1
  1902	2	-15.0076	 -15.512	-7.84384	C.1
  1903	2	-14.0094	-16.3981	-6.39408	C.1
  1904	2	-14.9454	-16.3442	-6.32615	C.1
  1905	1	-11.0081	   3.225	-19.5433	N.3
  1906	2	-11.5576	 2.26641	-19.5423	C.1
  1907	2	-10.8989	 2.34896	-20.2078	C.1
  1908	2	-10.6397	 3.30605	-18.5047	C.1
  1909	2	-9.98098	  3.3886	-19.1702	C.1
  1910	2	 -11.815	 3.97871	-19.5846	C.1
  1911	2	-11.1563	 4.06125	-20.2501	C.1
  1912	1	 12.9047	-1.22171	 11.9309	N.3
  1913	2	 12.5224	-0.418751	 11.2751	C.1
  1914	2	 13.3795	-0.738179	 11.0582	C.1
  1915	2	 12.0995	 -1.9778	    11.9	C.1
  1916	2	 12.9566	-2.29723	 11.6831	C.1
  1917	2	 12.8064	-0.789435	  12.943	C.1
  1918	2	 13.6635	-1.10886	 12.7261	C.1
  1919	1	 1.38194	 12.8512	 14.4656	N.3
  1920	2	 1.61511	   12.52	 13.4375	C.1
  1921	2	0.757072	 12.2918	 13.7462	C.1
  1922	2	 1.59854	 13.9343	 14.4372	C.1
  1923	2	0.740503	 13.7061	 14.7459	C.1
  1924	2	 2.21922	 12.4417	 15.0589	C.1
  1925	2	 1.36118	 12.2134	 15.3676	C.1
  1926	1	-0.459637	 19.3372	-9.15757	N.3
  1927	2	0.312139	 19.5889	-8.40799	C.1
  1928	2	-0.312683	 18.9413	 -8.1365	C.1
  1929	2	0.133334	 19.0725	-10.0515	C.1
  1930	2	-0.491488	 18.4248	-9.78005	C.1
  1931	2	-0.887152	 20.3215	 -9.4204	C.1
  1932	2	-1.51197	 19.6739	-9.14891	C.1
  1933	1	-8.72653	-18.1278	 6.61664	N.3
  1934	2	-7.66771	-18.3046	 6.35481	C.1
  1935	2	-7.90885	-17.4019	 6.45764	C.1
  1936	2	-8.87408	-18.7586	 7.51173	C.1
  1937	2	-9.11523	-17.8559	 7.61456	C.1
  1938	2	-9.27609	-18.6743	 5.82914	C.1
  1939	2	-9.51723	-17.7716	 5.93197	C.1
  1940	1	 16.6977	 10.5153	 6.01282	N.3
  1941	2	 17.7927	 10.5888	 6.14159	C.1
  1942	2	 17.2894	 10.6971	 6.92811	C.1
  1943	2	 16.5681	 9.54424	 5.50188	C.1
  1944	2	 16.0648	 9.65255	 6.28839	C.1
  1945	2	 16.4873	 11.2504	 5.21523	C.1
  1946	2	  15.984	 11.3588	 6.00175	C.1
  1947	1	 8.64023	-4.07152	 1.15815	N.3
  1948	2	 9.55153	-3.99792	 1.77865	C.1
  1949	2	 9.38519	-3.25806	 1.22319	C.1
  1950	2	 7.84873	-4.29195	 1.89693	C.1
  1951	2	 7.68239	-3.55209	 1.34146	C.1
  1952	2	 8.76994	-5.03447	0.632071	C.1
  1953	2	  8.6036	-4.29461	0.0766042	C.1
  1954	1	-3.06822	 13.9413	-11.8016	N.3
  1955	2	-3.32577	 13.0885	-12.4553	C.1
  1956	2	-3.91018	 13.2291	-11.7326	C.1
  1957	2	-2.98427	 14.7857	-12.5093	C.1
  1958	2	-3.56868	 14.9263	-11.7866	C.1
  1959	2	  -2.018	 13.7388	-11.5243	C.1
  1960	2	-2.60241	 13.8794	-10.8016	C.1
  1961	1	 3.89156	-17.0414	-10.8391	N.3
  1962	2	 4.22796	-18.0034	 -10.412	C.1
  1963	2	 3.30878	-17.9496	-10.6012	C.1
  1964	2	 4.55928	-16.9038	-11.7086	C.1
  1965	2	  3.6401	  -16.85	-11.8978	C.1
  1966	2	  4.2662	-16.2978	-10.1127	C.1
  1967	2	 3.34702	 -16.244	 -10.302	C.1
  1968	1	 8.27215	 13.8812	-15.1591	N.3
  1969	2	 8.52972	 14.2571	-14.1524	C.1
  1970	2	 7.61577	 14.0898	 -14.295	C.1
  1971	2	 8.93451	 13.0049	-15.2786	C.1
  1972	2	 8.02056	 12.8377	-15.4212	C.1
  1973	2	 8.72315	 14.6324	-15.8322	C.1
  1974	2	  7.8092	 14.4652	-15.9748	C.1
  1975	1	 19.6438	 7.97598	 4.80624	N.3
  1976	2	 20.6348	 8.46438	 4.82462	C.1
  1977	2	 20.1557	 8.56216	 4.02183	C.1
  1978	2	 19.1448	 8.38324	 5.70401	C.1
  1979	2	 18.6657	 8.48103	 4.90122	C.1
  1980	2	 19.8706	 6.93363	 5.09429	C.1
  1981	2	 19.3914	 7.03142	  4.2915	C.1
  1982	1	-1.44124	  19.593	-1.86308	N.3
  1983	2	-2.31692	 19.9881	-2.40893	C.1
  1984	2	-2.51842	 19.4787	-1.64508	C.1
  1985	2	-0.830388	  20.495	 -1.6787	C.1
  1986	2	-1.03189	 19.9856	-0.914851	C.1
  1987	2	-0.87417	 19.0599	-2.64739	C.1
  1988	2	-1.07567	 18.5505	-1.88355	C.1
  1989	1	 6.07703	-6.74674	-13.6991	N.3
  1990	2	 5.72263	-7.58062	-13.0667	C.1
  1991	2	 5.04516	-7.06804	 -13.469	C.1
  1992	2	 6.77281	-7.24032	-14.4013	C.1
  1993	2	 6.09535	-6.72774	-14.8037	C.1
  1994	2	 6.75185	-6.18815	-13.0257	C.1
  1995	2	 6.07439	-5.67557	-13.4281	C.1
  1996	1	 -5.9461	 10.7684	 16.3023	N.3
  1997	2	-4.86032	 10.7617	 16.5071	C.1
  1998	2	-5.29613	 11.5748	 16.6871	C.1
  1999	2	-6.31666	 9.89957	 16.8756	C.1
  2000	2	-6.75247	 10.7127	 17.0556	C.1
  2001	2	-6.00761	 10.4242	 15.2541	C.1
  2002	2	-6.44341	 11.2374	 15.4342	C.1
  2003	1	-12.5174	 1.82436	 10.2652	N.3
  2004	2	-11.4128	 1.80118	 10.2747	C.1
  2005	2	-11.7993	 2.58421	 10.6227	C.1
  2006	2	-12.7942	0.891178	 10.7881	C.1
  2007	2	-13.1807	 1.67421	 11.1361	C.1
  2008	2	-12.7656	 1.60616	 9.21084	C.1
  2009	2	-13.1521	  2.3892	 9.55878	C.1
  2010	1	-8.54536	 2.05225	 11.3957	N.3
  2011	2	-8.78338	  1.2514	 10.6726	C.1
  2012	2	-7.94846	 1.17168	  11.097	C.1
  2013	2	 -9.4188	 2.04934	 12.0724	C.1
  2014	2	-8.58388	 1.96962	 12.4968	C.1
  2015	2	-8.68628	  2.9756	 10.8054	C.1
  2016	2	-7.85136	 2.89589	 11.2298	C.1
  2017	1	-7.18394	 13.8246	-7.78471	N.3
  2018	2	-6.99945	 14.8978	-7.97217	C.1
  2019	2	-6.57192	 14.5453	-7.21287	C.1
  2020	2	  -6.907	 13.3496	-8.74308	C.1
  2021	2	-6.47947	  12.997	-7.98379	C.1
  2022	2	-8.28667	 13.7553	-7.77784	C.1
  2023	2	-7.85914	 13.4028	-7.01855	C.1
  2024	1	-14.6341	-10.0835	 8.18617	N.3
  2025	2	-15.3045	-10.7241	 7.58521	C.1
  2026	2	-15.5524	-9.81861	 7.63168	C.1
  2027	2	-13.6391	-10.2764	 7.74624	C.1
  2028	2	 -13.887	-9.37085	 7.79272	C.1
  2029	2	-14.5869	-10.6083	 9.15735	C.1
  2030	2	-14.8349	-9.70282	 9.20383	C.1
  2031	1	 5.95466	 17.2792	 4.21578	N.3
  2032	2	   5.676	 16.2216	 4.37299	C.1
  2033	2	  4.9587	 16.8014	 4.19133	C.1
  2034	2	   6.725	 17.2227	 3.42569	C.1
  2035	2	  6.0077	 17.8025	 3.24403	C.1
  2036	2	 6.53893	 17.5238	 5.12114	C.1
  2037	2	 5.82163	 18.1035	 4.93949	C.1
  2038	1	 14.8646	-2.22456	-3.17777	N.3
  2039	2	 15.8988	-1.87614	-3.35112	C.1
  2040	2	 15.3135	-1.76893	 -4.0788	C.1
  2041	2	 14.5701	-1.69243	-2.25532	C.1
  2042	2	 13.9848	-1.58521	  -2.983	C.1
  2043	2	  15.003	-3.26594	-2.83537	C.1
  2044	2	 14.4177	-3.15873	-3.56305	C.1
  2045	1	 16.5682	 4.03664	 5.41315	N.3
  2046	2	 17.5176	 4.19486	  5.9559	C.1
  2047	2	 17.5815	 3.65918	 5.18612	C.1
  2048	2	 16.2012	 5.06455	 5.24126	C.1
  2049	2	 16.2652	 4.52887	 4.47148	C.1
  2050	2	 15.8899	 3.65403	 6.19695	C.1
  2051	2	 15.9539	 3.11835	 5.42718	C.1
  2052	1	 9.81754	 6.99133	-6.94612	N.3
  2053	2	  9.2932	 6.73319	-7.88385	C.1
  2054	2	 8.77817	 7.20466	-7.25451	C.1
  2055	2	 10.7236	 7.51574	 -7.2995	C.1
  2056	2	 10.2086	 7.98721	-6.67016	C.1
  2057	2	 10.2083	 6.01785	-6.59903	C.1
  2058	2	 9.69332	 6.48933	-5.96969	C.1
  2059	1	 11.0171	-3.07296	 11.9299	N.3
  2060	2	 10.6699	-3.62917	 12.8192	C.1
  2061	2	 11.4881	-3.92055	 12.4597	C.1
  2062	2	 11.0001	-2.02096	 12.2673	C.1
  2063	2	 11.8183	-2.31235	 11.9078	C.1
  2064	2	 10.1541	-3.13167	 11.2424	C.1
  2065	2	 10.9723	-3.42306	 10.8828	C.1
  2066	1	 15.4109	  3.1092	 2.50508	N.3
  2067	2	 16.4665	 3.36665	 2.30422	C.1
  2068	2	 16.0219	 3.94002	 2.90181	C.1
  2069	2	 15.4645	 2.05158	 2.82039	C.1
  2070	2	 15.0198	 2.62496	 3.41798	C.1
  2071	2	 14.9688	 3.04932	 1.49425	C.1
  2072	2	 14.5241	  3.6227	 2.09185	C.1
  2073	1	-0.267552	0.211251	-13.9339	N.3
  2074	2	0.155866	-0.499911	-13.2019	C.1
  2075	2	0.781543	-0.0979958	-13.7769	C.1
  2076	2	-0.842862	0.911641	 -13.302	C.1
  2077	2	-0.217185	 1.31356	 -13.877	C.1
  2078	2	-1.05418	-0.380849	-14.4354	C.1
  2079	2	-0.428499	0.0210655	-15.0104	C.1
  2080	1	-9.90604	 14.0251	-11.9927	N.3
  2081	2	-10.7103	 14.7825	-12.0096	C.1
  2082	2	-10.2602	 14.6954	-11.1889	C.1
  2083	2	-9.27014	 14.3128	-12.8493	C.1
  2084	2	-8.82006	 14.2256	-12.0287	C.1
  2085	2	-10.4128	 13.1106	-12.3503	C.1
  2086	2	-9.96269	 13.0235	-11.5297	C.1
  2087	1	 18.4691	0.882448	 13.4896	N.3
  2088	2	 18.2233	 1.91614	 13.1863	C.1
  2089	2	 17.4867	 1.33829	 13.2705	C.1
  2090	2	 19.0631	 1.02387	 14.4105	C.1
  2091	2	 18.3265	 0.44602	 14.4946	C.1
  2092	2	 19.2258	0.574112	 12.7458	C.1
  2093	2	 18.4891	-0.00373652	   12.83	C.1
  2094	1	 4.86531	 -11.428	 15.6208	N.3
  2095	2	 4.79643	-12.1049	 14.7502	C.1
  2096	2	 4.61875	-11.1999	 14.5682	C.1
  2097	2	 5.87236	-11.6373	 16.0245	C.1
  2098	2	 5.69468	-10.7324	 15.8424	C.1
  2099	2	 4.19367	-11.8992	 16.3609	C.1
  2100	2	 4.01599	-10.9943	 16.1789	C.1
  2101	1	 10.3033	-12.0234	-6.65691	N.3
  2102	2	 9.85484	-11.7713	-5.67907	C.1
  2103	2	 10.6095	-11.2633	-5.91569	C.1
  2104	2	   9.449	-11.9483	-7.35355	C.1
  2105	2	 10.2037	-11.4404	-7.59018	C.1
  2106	2	 10.4741	-13.1126	-6.58316	C.1
  2107	2	 11.2288	-12.6046	-6.81979	C.1
  2108	1	-9.13613	 17.2185	 9.88806	N.3
  2109	2	-9.31984	 16.2438	 10.3751	C.1
  2110	2	-9.64099	 16.9922	 10.8445	C.1
  2111	2	-9.56072	 17.0798	 8.87744	C.1
  2112	2	-9.88187	 17.8282	 9.34685	C.1
  2113	2	 -8.0461	 17.2091	 9.70751	C.1
  2114	2	-8.36725	 17.9575	 10.1769	C.1
  2115	1	-15.0004	 9.01599	-2.26344	N.3
  2116	2	-14.9135	 8.51601	-1.28192	C.1
  2117	2	-15.7722	  8.8344	-1.49387	C.1
  2118	2	-14.5901	 8.26769	-2.96528	C.1
  2119	2	-15.4488	 8.58608	-3.17723	C.1
  2120	2	-14.2095	 9.78667	-2.22521	C.1
  2121	2	-15.0682	 10.1051	-2.43716	C.1
  2122	1	  -19.62	-15.8322	 14.9732	N.3
  2123	2	-20.1187	-16.7015	 15.4386	C.1
  2124	2	-20.5404	 -16.363	 14.6697	C.1
  2125	2	-18.5838	-16.1855	 14.8239	C.1
  2126	2	-19.0055	 -15.847	  14.055	C.1
  2127	2	 -19.525	-15.1174	 15.8104	C.1
  2128	2	-19.9467	-14.7789	 15.0415	C.1
  2129	1	 10.0313	 14.8673	  12.562	N.3
  2130	2	 10.7201	 14.1407	 13.0295	C.1
  2131	2	 9.81157	 14.0232	 13.2403	C.1
  2132	2	 10.2778	 14.7938	 11.4875	C.1
  2133	2	 9.36928	 14.6763	 11.6983	C.1
  2134	2	 10.4589	 15.8438	  12.853	C.1
  2135	2	 9.55037	 15.7263	 13.0638	C.1
  2136	1	 13.2882	 4.56117	-5.36239	N.3
  2137	2	 13.7549	 4.56862	-4.36087	C.1
  2138	2	 14.1252	 5.17223	-4.97904	C.1
  2139	2	  12.216	 4.71217	-5.14253	C.1
  2140	2	 12.5863	 5.31579	 -5.7607	C.1
  2141	2	 13.3384	 3.49729	 -5.6565	C.1
  2142	2	 13.7086	  4.1009	-6.27467	C.1
  2143	1	 17.8162	-1.49458	 13.5404	N.3
  2144	2	 16.7699	-1.51182	 13.1858	C.1
  2145	2	  17.372	-2.02686	   12.68	C.1
  2146	2	 17.7276	-1.78394	 14.6031	C.1
  2147	2	 18.3297	-2.29897	 14.0973	C.1
  2148	2	 18.0481	-0.415435	  13.591	C.1
  2149	2	 18.6502	-0.930471	 13.0852	C.1
  2150	1	 15.0022	  6.3204	-16.1239	N.3
  2151	2	 14.1924	 5.86085	-16.7188	C.1
  2152	2	 14.0433	 6.75282	-16.4623	C.1
  2153	2	 15.8991	 6.15423	-16.7473	C.1
  2154	2	 15.7501	  7.0462	-16.4909	C.1
  2155	2	 15.1385	 5.60816	-15.2902	C.1
  2156	2	 14.9895	 6.50013	-15.0338	C.1
  2157	1	  18.425	 14.7193	 17.7528	N.3
  2158	2	 18.8693	 15.6792	 18.0724	C.1
  2159	2	 18.7978	 15.0276	 18.7462	C.1
  2160	2	 19.0442	 14.4312	 16.8842	C.1
  2161	2	 18.9728	 13.7796	  17.558	C.1
  2162	2	 17.4688	 15.0248	 17.2911	C.1
  2163	2	 17.3974	 14.3732	 17.9649	C.1
  2164	1	-1.47693	 19.2087	-13.9123	N.3
  2165	2	-0.651621	   19.94	-13.8417	C.1
  2166	2	-1.50516	 20.2799	-13.6429	C.1
  2167	2	-1.13765	 18.3814	-13.2632	C.1
  2168	2	-1.99119	 18.7214	-13.0644	C.1
  2169	2	-1.36122	 18.7948	-14.9302	C.1
  2170	2	-2.21476	 19.1347	-14.7315	C.1
  2171	1	 9.76475	  15.956	 15.4428	N.3
  2172	2	 10.2761	 16.2718	   16.37	C.1
  2173	2	 10.7706	 15.6939	 15.8176	C.1
  2174	2	 9.47115	 16.9142	 14.9774	C.1
  2175	2	 9.96564	 16.3364	  14.425	C.1
  2176	2	 8.80527	 15.5489	 15.8095	C.1
  2177	2	 9.29976	 14.9711	 15.2571	C.1
  2178	1	 19.7671	 17.4995	 16.4081	N.3
  2179	2	 20.7288	 18.0371	 16.4921	C.1
  2180	2	 20.6421	  17.489	 15.7334	C.1
  2181	2	 19.0179	 18.3072	 16.4925	C.1
  2182	2	 18.9312	 17.7592	 15.7337	C.1
  2183	2	 19.6846	 16.9762	 17.3777	C.1
  2184	2	 19.5979	 16.4281	 16.6189	C.1
  2185	1	 13.8299	-16.4464	 18.4661	N.3
  2186	2	 14.6794	-16.3347	 17.7684	C.1
  2187	2	 14.7988	-16.9771	 18.4442	C.1
  2188	2	 12.9722	-16.6262	 17.7932	C.1
  2189	2	 13.0917	-17.2685	  18.469	C.1
  2190	2	 13.6589	-15.4148	 18.8231	C.1
  2191	2	 13.7784	-16.0572	 19.4989	C.1
  2192	1	 9.15024	-2.91276	-2.35667	N.3
  2193	2	  9.0148	-3.82198	-1.74359	C.1
  2194	2	  8.3645	-3.68785	-2.40897	C.1
  2195	2	 10.1873	-3.00907	-2.72564	C.1
  2196	2	 9.53698	-2.87493	-3.39101	C.1
  2197	2	  9.2241	-2.10842	-1.60272	C.1
  2198	2	  8.5738	-1.97429	-2.26809	C.1
  2199	1	 10.8162	 4.73357	 3.25259	N.3
  2200	2	 11.5067	 4.93541	 4.09128	C.1
  2201	2	 10.8651	 5.60368	 3.93186	C.1
  2202	2	 10.4062	 3.73714	 3.49721	C.1
  2203	2	 9.76461	 4.40541	 3.33779	C.1
  2204	2	 11.4982	 4.52574	 2.40841	C.1
  2205	2	 10.8566	 5.19401	 2.24899	C.1
  2206	1	-4.65123	 17.7991	 8.63686	N.3
  2207	2	-3.85217	 17.4538	  7.9563	C.1
  2208	2	-3.73066	 18.3159	  8.3107	C.1
  2209	2	-4.71411	 16.9881	 9.38464	C.1
  2210	2	-4.59259	 17.8502	 9.73905	C.1
  2211	2	-5.56967	 17.6622	 8.03804	C.1
  2212	2	-5.44816	 18.5243	 8.39245	C.1
  2213	1	 5.96166	 13.1731	-3.25744	N.3
  2214	2	 7.03069	 13.2101	-3.53438	C.1
  2215	2	 6.54124	 12.5075	-3.92227	C.1
  2216	2	 5.60177	 14.1884	-3.50331	C.1
  2217	2	 5.11232	 13.4859	-3.89119	C.1
  2218	2	  5.9867	 13.1746	 -2.1528	C.1
  2219	2	 5.49724	 12.4721	-2.54069	C.1
  2220	1	 16.5971	 19.1239	-8.23855	N.3
  2221	2	 15.7492	  19.256	-8.93454	C.1
  2222	2	 16.1235	 18.3939	-8.91952	C.1
  2223	2	 16.1894	 19.4761	 -7.2739	C.1
  2224	2	 16.5637	  18.614	-7.25888	C.1
  2225	2	 17.2913	 19.9327	-8.52973	C.1
  2226	2	 17.6656	 19.0706	-8.51472	C.1
  2227	1	-11.3731	 9.66148	-14.4436	N.3
  2228	2	 -10.286	 9.79917	-14.5856	C.1
  2229	2	-10.7243	 10.5049	-14.1459	C.1
  2230	2	-11.4397	 8.68029	-13.9399	C.1
  2231	2	-11.8781	 9.38605	-13.5002	C.1
  2232	2	 -11.736	 9.44633	-15.4648	C.1
  2233	2	-12.1743	 10.1521	 -15.025	C.1
  2234	1	 4.90472	 10.2361	  17.002	N.3
  2235	2	 4.54629	 10.0071	 18.0218	C.1
  2236	2	 3.99319	 10.5806	  17.523	C.1
  2237	2	 5.06525	 9.23621	 16.5602	C.1
  2238	2	 4.51215	 9.80966	 16.0613	C.1
  2239	2	 5.93226	 10.6049	 17.1723	C.1
  2240	2	 5.37916	 11.1784	 16.6735	C.1
  2241	1	-8.10751	-11.7455	-10.5246	N.3
  2242	2	 -7.8067	-12.4401	-9.71972	C.1
  2243	2	-8.11646	-11.6015	-9.42916	C.1
  2244	2	-8.83341	-12.3374	-11.1109	C.1
  2245	2	-9.14316	-11.4988	-10.8203	C.1
  2246	2	 -7.2178	-11.7169	-11.1792	C.1
  2247	2	-7.52755	-10.8783	-10.8887	C.1
  2248	1	-1.04418	 -9.3419	 19.0481	N.3
  2249	2	-1.07208	-9.63309	 17.9826	C.1
  2250	2	 -1.5333	-10.2077	 18.5663	C.1
  2251	2	-1.40492	-8.29762	 19.0341	C.1
  2252	2	-1.86615	-8.87219	 19.6178	C.1
  2253	2	0.0363031	-9.23313	  19.252	C.1
  2254	2	-0.424922	 -9.8077	 19.8357	C.1
  2255	1	 13.6143	 9.94561	  -10.61	N.3
  2256	2	 13.3629	  10.991	-10.3555	C.1
  2257	2	 13.1637	 10.7353	-11.2379	C.1
  2258	2	 13.0995	 9.36363	 -9.8244	C.1
  2259	2	 12.9003	  9.1079	-10.7068	C.1
  2260	2	 14.6792	 9.86575	-10.3264	C.1
  2261	2	 14.4801	 9.61002	-11.2088	C.1
  2262	1	 3.31826	-7.55483	     -10	N.3
  2263	2	 2.24185	-7.51789	-10.2468	C.1
  2264	2	 2.75901	-6.82102	 -10.608	C.1
  2265	2	  3.6147	-8.57177	-10.3144	C.1
  2266	2	 4.13186	 -7.8749	-10.6757	C.1
  2267	2	 3.32249	-7.62014	-8.89705	C.1
  2268	2	 3.83965	-6.92327	-9.25831	C.1
  2269	1	 18.8528	-7.15694	 16.4116	N.3
  2270	2	 19.4914	-6.61725	 15.6892	C.1
  2271	2	 18.8176	-6.09989	 16.0918	C.1
  2272	2	 19.5833	-7.60324	 17.1102	C.1
  2273	2	 18.9096	-7.08588	 17.5128	C.1
  2274	2	 18.4943	-8.02637	 15.8316	C.1
  2275	2	 17.8206	-7.50901	 16.2341	C.1
  2276	1	-7.86623	 1.23137	-1.05603	N.3
  2277	2	-6.91199	 1.14408	-0.505839	C.1
  2278	2	 -7.1156	 2.00674	-0.818827	C.1
  2279	2	-8.60273	0.799964	-0.354385	C.1
  2280	2	-8.80634	 1.66262	-0.667373	C.1
  2281	2	-7.77854	0.456073	-1.83839	C.1
  2282	2	-7.98215	 1.31873	-2.15138	C.1
  2283	1	 12.5023	 -8.1866	-7.92063	N.3
  2284	2	 11.5761	-7.72862	-8.31216	C.1
  2285	2	 11.5727	-7.91201	-7.39023	C.1
  2286	2	 13.2908	-7.49015	-8.25839	C.1
  2287	2	 13.2874	-7.67354	-7.33646	C.1
  2288	2	 12.6451	-9.06595	-8.57423	C.1
  2289	2	 12.6417	-9.24934	 -7.6523	C.1
  2290	1	 -17.943	-4.70135	 -3.8405	N.3
  2291	2	-18.5972	 -5.5532	-3.58105	C.1
  2292	2	 -18.434	-5.43973	-4.49979	C.1
  2293	2	-17.0444	-4.87522	-3.22148	C.1
  2294	2	-16.8812	-4.76175	-4.14022	C.1
  2295	2	-18.4322	-3.84585	-3.34087	C.1
  2296	2	 -18.269	-3.73237	-4.25961	C.1
  2297	1	-6.05031	 1.41277	-0.118471	N.3
  2298	2	-5.35624	 2.05867	-0.685901	C.1
  2299	2	-5.38469	 1.16113	-0.963766	C.1
  2300	2	-7.01055	 1.95553	-0.183344	C.1
  2301	2	-7.03901	 1.05799	-0.461209	C.1
  2302	2	-5.74147	 1.57043	0.930631	C.1
  2303	2	-5.76992	0.672887	0.652766	C.1
  2304	1	-14.1256	-1.03715	 2.98491	N.3
  2305	2	-15.1354	-0.785392	 2.61353	C.1
  2306	2	-14.6904	-0.0907465	 3.06413	C.1
  2307	2	-13.6123	-1.41709	 2.08324	C.1
  2308	2	-13.1673	-0.722445	 2.53384	C.1
  2309	2	-14.2967	-1.95094	 3.58206	C.1
  2310	2	-13.8517	-1.25629	 4.03267	C.1
  2311	1	-11.3749	-5.84534	-12.3134	N.3
  2312	2	-12.1896	-6.17781	-11.6451	C.1
  2313	2	 -11.783	-6.85898	-12.1493	C.1
  2314	2	-10.6987	-5.29631	-11.6336	C.1
  2315	2	-10.2921	-5.97749	-12.1378	C.1
  2316	2	-11.8464	-5.04014	-12.9052	C.1
  2317	2	-11.4398	-5.72132	-13.4094	C.1
  2318	1	 1.10223	 7.12603	-19.1819	N.3
  2319	2	 1.33596	 6.61564	-20.1336	C.1
  2320	2	0.433142	 6.84984	-20.0167	C.1
  2321	2	 1.81287	 7.97199	-19.1678	C.1
  2322	2	0.910051	 8.20619	-19.0509	C.1
  2323	2	  1.5121	 6.43914	-18.4196	C.1
  2324	2	0.609277	 6.67335	-18.3027	C.1
  2325	1	 19.2341	-15.3851	-7.18417	N.3
  2326	2	 19.0857	-15.6986	-8.23327	C.1
  2327	2	 18.8637	-14.8041	-8.04799	C.1
  2328	2	 20.2857	-15.6594	-6.98497	C.1
  2329	2	 20.0638	-14.7649	-6.79969	C.1
  2330	2	 18.6638	 -16.139	-6.61218	C.1
  2331	2	 18.4418	-15.2446	 -6.4269	C.1
  2332	1	-10.3603	 8.48782	-18.9885	N.3
  2333	2	-9.77693	 9.37492	-18.6826	C.1
  2334	2	-9.88886	 9.27031	-19.6101	C.1
  2335	2	-11.2966	 8.58967	-18.4107	C.1
  2336	2	-11.4085	 8.48506	-19.3381	C.1
  2337	2	-9.83964	 7.65578	-18.4812	C.1
  2338	2	-9.95157	 7.55117	-19.4086	C.1
  2339	1	 9.59485	-13.8723	 3.22684	N.3
  2340	2	 10.4038	-13.1445	  3.0349	C.1
  2341	2	 9.59672	-12.9732	 2.58454	C.1
  2342	2	 9.52404	-13.8863	  4.3294	C.1
  2343	2	 8.71693	 -13.715	 3.87904	C.1
  2344	2	 10.0673	 -14.843	 2.99176	C.1
  2345	2	 9.26023	-14.6717	  2.5414	C.1
  2346	1	 19.3793	-18.2367	-13.4466	N.3
  2347	2	 19.3226	-17.2004	-13.0676	C.1
  2348	2	 19.1315	-17.8686	-12.4347	C.1
  2349	2	 20.3886	-18.2874	-13.8935	C.1
  2350	2	 20.1975	-18.9556	-13.2606	C.1
  2351	2	 18.7134	-18.2201	-14.3282	C.1
  2352	2	 18.5223	-18.8883	-13.6952	C.1
  2353	1	-10.1204	 12.6538	 7.20303	N.3
  2354	2	-9.05884	 12.7273	 7.50055	C.1
  2355	2	-9.35418	 13.3921	 6.90527	C.1
  2356	2	-10.6522	 12.6197	 8.17095	C.1
  2357	2	-10.9476	 13.2845	 7.57567	C.1
  2358	2	-10.2072	 11.6172	  6.8305	C.1
  2359	2	-10.5025	  12.282	 6.23522	C.1
  2360	1	-0.312361	-5.91569	 3.95254	N.3
  2361	2	-1.01697	-6.14941	 3.13412	C.1
  2362	2	-0.598084	-6.89411	 3.52598	C.1
  2363	2	-0.920093	-5.30177	 4.64146	C.1
  2364	2	-0.50121	-6.04647	 5.03332	C.1
  2365	2	0.371652	-5.17884	 3.49425	C.1
  2366	2	0.790535	-5.92354	  3.8861	C.1
  2367	1	-0.344827	-10.1047	-18.8563	N.3
  2368	2	-0.425038	-10.2787	-17.7681	C.1
  2369	2	0.403902	-9.94482	-18.0596	C.1
  2370	2	-1.21444	-9.45856	-19.0735	C.1
  2371	2	-0.385501	-9.12464	 -19.365	C.1
  2372	2	-0.638412	-11.0775	-19.2901	C.1
  2373	2	0.190528	-10.7436	-19.5815	C.1
  2374	1	 15.5155	-9.39398	 13.3458	N.3
  2375	2	 16.0994	-8.54645	 12.9438	C.1
  2376	2	 16.3162	-8.80025	 13.8225	C.1
  2377	2	 15.6531	-10.1804	  12.582	C.1
  2378	2	 15.8699	-10.4342	 13.4607	C.1
  2379	2	 14.4688	-9.07438	 13.1936	C.1
  2380	2	 14.6856	-9.32818	 14.0723	C.1
  2381	1	-7.51457	 2.71781	 -8.1405	N.3
  2382	2	-8.45087	 2.47895	-7.60461	C.1
  2383	2	-8.11144	 1.78796	-8.14396	C.1
  2384	2	-6.84115	 3.05782	-7.33318	C.1
  2385	2	-6.50172	 2.36682	-7.87254	C.1
  2386	2	-7.76083	 3.65316	-8.67468	C.1
  2387	2	 -7.4214	 2.96216	-9.21403	C.1
  2388	1	 8.78887	0.262413	-1.77967	N.3
  2389	2	 8.17621	-0.133627	-0.949796	C.1
  2390	2	 8.99737	0.246137	-0.694703	C.1
  2391	2	 8.09591	0.947409	-2.30067	C.1
  2392	2	 8.91707	 1.32717	-2.04558	C.1
  2393	2	 8.86275	-0.59619	-2.47119	C.1
  2394	2	 9.68391	-0.216427	 -2.2161	C.1
  2395	1	-0.720569	-10.5703	-6.40162	N.3
  2396	2	-0.00657029	-11.2719	-5.93374	C.1
  2397	2	-0.773199	-11.0823	-5.42388	C.1
  2398	2	-0.913837	-11.0276	-7.38877	C.1
  2399	2	-1.68047	 -10.838	-6.87892	C.1
  2400	2	-0.0913555	-9.69589	-6.64715	C.1
  2401	2	-0.857985	-9.50634	 -6.1373	C.1
  2402	1	-10.2764	 18.2345	0.817455	N.3
  2403	2	-10.7722	 19.0579	 1.36246	C.1
  2404	2	-11.3522	 18.4648	0.920287	C.1
  2405	2	-9.63118	 17.7744	 1.58744	C.1
  2406	2	-10.2111	 17.1813	 1.14527	C.1
  2407	2	-9.55587	 18.7607	0.165725	C.1
  2408	2	-10.1358	 18.1677	-0.276451	C.1
  2409	1	 4.54056	-5.10339	 16.4532	N.3
  2410	2	 4.81575	-4.11574	 16.8652	C.1
  2411	2	 4.60534	 -4.1223	 15.9491	C.1
  2412	2	 3.72968	-5.43989	 17.1241	C.1
  2413	2	 3.51927	-5.44645	  16.208	C.1
  2414	2	 5.39186	-5.74469	 16.7446	C.1
  2415	2	 5.18145	-5.75126	 15.8284	C.1
  2416	1	 10.6768	-15.9055	-4.29315	N.3
  2417	2	 11.2435	-16.0688	-5.22753	C.1
  2418	2	 10.7406	-15.2752	-5.19839	C.1
  2419	2	 11.4494	-16.0014	-3.50909	C.1
  2420	2	 10.9464	-15.2078	-3.47995	C.1
  2421	2	 10.0918	-16.8369	-4.18655	C.1
  2422	2	  9.5889	-16.0433	-4.15741	C.1
  2423	1	-0.830079	 10.8198	-18.9805	N.3
  2424	2	-1.28519	 11.7285	 -18.547	C.1
  2425	2	-0.728117	 11.2438	-17.9653	C.1
  2426	2	-0.33975	 11.1953	-19.8967	C.1
  2427	2	0.217318	 10.7106	-19.3151	C.1
  2428	2	 -1.7009	 10.2626	-19.3704	C.1
  2429	2	-1.14384	 9.77787	-18.7887	C.1
  2430	1	-19.6421	 3.56644	-7.71384	N.3
  2431	2	-19.0296	 3.16556	-6.88618	C.1
  2432	2	-19.9333	 2.90715	-6.87632	C.1
  2433	2	-19.0771	 3.26604	-8.61465	C.1
  2434	2	-19.9809	 3.00762	-8.60479	C.1
  2435	2	-19.4639	 4.65535	-7.65547	C.1
  2436	2	-20.3677	 4.39693	-7.64561	C.1
  2437	1	-3.60953	 7.58629	-5.71023	N.3
  2438	2	 -2.9348	 7.14303	 -4.9558	C.1
  2439	2	-3.85265	 7.03876	-4.78179	C.1
  2440	2	 -3.2571	 7.14002	-6.65759	C.1
  2441	2	-4.17495	 7.03575	-6.48358	C.1
  2442	2	-3.25991	 8.63223	-5.77832	C.1
  2443	2	-4.17776	 8.52797	-5.60431	C.1
  2444	1	 2.11292	 10.1735	 -9.7487	N.3
  2445	2	 1.99503	 9.12178	-10.0664	C.1
  2446	2	 2.85155	 9.35171	-9.75481	C.1
  2447	2	 1.29487	   10.31	-9.01863	C.1
  2448	2	 2.15139	 10.5399	-8.70703	C.1
  2449	2	 1.76409	 10.7437	-10.6285	C.1
  2450	2	 2.62061	 10.9737	-10.3169	C.1
  2451	1	 7.79202	-1.27155	 13.8918	N.3
  2452	2	 8.29669	-1.57905	 14.8254	C.1
  2453	2	 8.21281	-2.25303	 14.1756	C.1
  2454	2	  8.3664	-0.382316	 13.5752	C.1
  2455	2	 8.28252	 -1.0563	 12.9254	C.1
  2456	2	 6.83878	-0.842304	 14.2495	C.1
  2457	2	  6.7549	-1.51629	 13.5996	C.1
  2458	1	-16.2527	-3.48779	 16.8653	N.3
  2459	2	-16.8138	-2.85152	 17.5733	C.1
  2460	2	-15.9287	-2.58151	 17.4081	C.1
  2461	2	 -16.909	-3.51655	 15.9769	C.1
  2462	2	-16.0239	-3.24653	 15.8116	C.1
  2463	2	 -16.363	-4.50032	 17.2937	C.1
  2464	2	-15.4779	-4.23031	 17.1284	C.1
  2465	1	-16.6947	 18.7902	-15.5441	N.3
  2466	2	-15.7334	 18.9965	-16.0483	C.1
  2467	2	-16.3548	 18.5079	-16.5568	C.1
  2468	2	-17.0328	 19.7926	-15.2252	C.1
  2469	2	-17.6543	  19.304	-15.7337	C.1
  2470	2	-16.3856	 18.3145	-14.5959	C.1
  2471	2	-17.0071	 17.8259	-15.1045	C.1
  2472	1	-6.32118	 14.4725	 7.28596	N.3
  2473	2	-5.71798	 15.3039	 7.69309	C.1
  2474	2	-5.79307	 15.2858	 6.75627	C.1
  2475	2	-7.27724	 14.5628	 7.83244	C.1
  2476	2	-7.35233	 14.5447	 6.89562	C.1
  2477	2	-5.85568	  13.578	 7.73758	C.1
  2478	2	-5.93077	 13.5598	 6.80076	C.1
  2479	1	-10.4652	-17.3608	 -17.575	N.3
  2480	2	-10.3116	-17.6137	-16.5104	C.1
  2481	2	-10.0696	-16.7382	-16.7522	C.1
  2482	2	-11.5258	-17.6193	-17.7456	C.1
  2483	2	-11.2837	-16.7438	-17.9875	C.1
  2484	2	-9.92113	-18.1625	-18.1061	C.1
  2485	2	-9.67911	 -17.287	 -18.348	C.1
  2486	1	-17.4862	 5.23627	-16.5675	N.3
  2487	2	-17.2803	 4.46111	-15.8074	C.1
  2488	2	-17.8824	 4.20825	-16.4836	C.1
  2489	2	-16.4776	 5.52013	-16.9184	C.1
  2490	2	-17.0797	 5.26727	-17.5945	C.1
  2491	2	-17.7974	 6.10687	-15.9625	C.1
  2492	2	-18.3995	 5.85401	-16.6386	C.1
  2493	1	 -9.9371	-12.3299	 7.89863	N.3
  2494	2	-9.51954	-11.7797	 8.76104	C.1
  2495	2	-10.3908	-11.5302	  8.5114	C.1
  2496	2	-9.81724	-13.3884	 8.19228	C.1
  2497	2	-10.6885	-13.1389	 7.94265	C.1
  2498	2	-9.16769	 -12.196	 7.11701	C.1
  2499	2	-10.0389	-11.9465	 6.86737	C.1
  2500	1	-15.6384	 1.63006	 13.4376	N.3
  2501	2	-16.0261	 1.75868	 14.4643	C.1
  2502	2	-15.8388	0.871671	 14.2158	C.1
  2503	2	-14.7755	 2.31942	 13.4052	C.1
  2504	2	-14.5882	 1.43241	 13.1568	C.1
  2505	2	-16.3945	 2.14259	  12.816	C.1
  2506	2	-16.2072	 1.25559	 12.5675	C.1
  2507	1	 8.43489	-9.10214	-2.37843	N.3
  2508	2	 8.57808	-8.59446	-3.34934	C.1
  2509	2	 7.88371	 -9.2277	-3.32781	C.1
  2510	2	 8.32773	 -8.2628	-1.66788	C.1
  2511	2	 7.63336	-8.89604	-1.64636	C.1
  2512	2	 9.44043	-9.49931	-2.15035	C.1
  2513	2	 8.74606	-10.1325	-2.12883	C.1
  2514	1	-2.85426	-19.7227	-10.6646	N.3
  2515	2	 -3.4125	-18.8918	-11.1325	C.1
  2516	2	-2.50065	-18.7238	-10.9779	C.1
  2517	2	-3.06827	-20.5776	 -11.331	C.1
  2518	2	-2.15642	-20.4097	-11.1764	C.1
  2519	2	-3.44978	-19.9506	-9.76225	C.1
  2520	2	-2.53793	-19.7826	-9.60764	C.1
  2521	1	 7.91433	 4.81658	  19.133	N.3
  2522	2	 7.96725	 5.04908	 18.0541	C.1
  2523	2	 7.10151	 5.04509	 18.4203	C.1
  2524	2	 8.61164	   5.546	 19.5831	C.1
  2525	2	  7.7459	 5.54201	 19.9492	C.1
  2526	2	 8.46271	 3.86065	 19.2126	C.1
  2527	2	 7.59697	 3.85666	 19.5788	C.1
  2528	1	 3.59816	 15.6046	-19.0696	N.3
  2529	2	 3.87313	 14.6254	-18.6376	C.1
  2530	2	  3.0505	 14.6452	 -19.092	C.1
  2531	2	 4.47969	 15.8671	-19.6818	C.1
  2532	2	 3.65706	 15.8868	-20.1362	C.1
  2533	2	 3.67559	 16.2916	-18.2077	C.1
  2534	2	 2.85296	 16.3113	-18.6621	C.1
  2535	1	 16.2772	  13.973	 -3.6761	N.3
  2536	2	 16.8335	 14.2363	-4.59373	C.1
  2537	2	 17.3667	 14.0538	-3.84139	C.1
  2538	2	 15.6274	 13.1418	-4.00442	C.1
  2539	2	 16.1606	 12.9593	-3.25208	C.1
  2540	2	 15.5709	 14.8145	-3.55864	C.1
  2541	2	 16.1041	  14.632	-2.80631	C.1
  2542	1	-14.2911	-9.38642	-8.47495	N.3
  2543	2	-14.5206	-9.98111	-9.37748	C.1
  2544	2	-13.8899	-10.3648	-8.79558	C.1
  2545	2	-15.2872	-9.20273	-8.03343	C.1
  2546	2	-14.6565	-9.58637	-7.45153	C.1
  2547	2	-14.0116	-8.39996	-8.88678	C.1
  2548	2	-13.3809	 -8.7836	-8.30488	C.1
  2549	1	 6.80684	 7.83528	-17.0616	N.3
  2550	2	 7.62253	 7.11277	-17.2447	C.1
  2551	2	 6.78024	 6.73076	-17.0767	C.1
  2552	2	 6.85447	 8.49888	-17.9438	C.1
  2553	2	 6.01218	 8.11688	-17.7758	C.1
  2554	2	 7.20695	 8.46721	-16.2483	C.1
  2555	2	 6.36466	  8.0852	-16.0804	C.1
  2556	1	-10.2381	-12.2688	 -16.619	N.3
  2557	2	-10.2253	-11.7934	-15.6217	C.1
  2558	2	-9.88734	  -12.67	-15.6511	C.1
  2559	2	-9.70541	-11.5382	 -17.254	C.1
  2560	2	-9.36746	-12.4148	-17.2834	C.1
  2561	2	-11.2906	-12.1599	-16.9372	C.1
  2562	2	-10.9527	-13.0366	-16.9666	C.1
  2563	1	-8.60259	-3.43641	 6.49633	N.3
  2564	2	-8.78094	-3.75274	 5.45277	C.1
  2565	2	-8.82667	-4.44013	  6.0923	C.1
  2566	2	-9.32636	-2.61366	 6.63808	C.1
  2567	2	-9.37208	-3.30105	 7.27762	C.1
  2568	2	-7.63187	-2.91175	 6.43884	C.1
  2569	2	 -7.6776	-3.59914	 7.07838	C.1
  2570	1	-4.38537	-15.0984	-11.1145	N.3
  2571	2	-3.75673	-14.2592	-10.7661	C.1
  2572	2	-3.29231	-15.0533	-10.9593	C.1
  2573	2	-4.94248	-14.6615	-11.9628	C.1
  2574	2	-4.47806	-15.4556	 -12.156	C.1
  2575	2	-5.15352	-15.1834	-10.3248	C.1
  2576	2	 -4.6891	-15.9775	 -10.518	C.1
  2577	1	-11.0515	 5.81587	 9.95265	N.3
  2578	2	-10.8384	 4.95918	 10.6172	C.1
  2579	2	-11.6775	 5.36383	  10.743	C.1
  2580	2	-10.8758	 5.40235	  8.9432	C.1
  2581	2	-11.7149	   5.807	 9.06906	C.1
  2582	2	-10.1817	 6.47912	 10.1088	C.1
  2583	2	-11.0208	 6.88376	 10.2346	C.1
  2584	1	-17.9216	-13.7528	 4.01177	N.3
  2585	2	-17.4257	-14.2319	 3.14841	C.1
  2586	2	-17.8034	-13.3888	 2.97525	C.1
  2587	2	-17.1392	-13.7661	 4.79184	C.1
  2588	2	 -17.517	-12.9229	 4.61868	C.1
  2589	2	-18.6334	-14.5252	 4.35482	C.1
  2590	2	-19.0111	 -13.682	 4.18165	C.1
  2591	1	 17.9471	 3.08807	 8.28986	N.3
  2592	2	 18.6357	 2.65253	 9.03622	C.1
  2593	2	  19.051	 3.11233	 8.32936	C.1
  2594	2	 17.2587	 3.69502	 8.90519	C.1
  2595	2	 17.6741	 4.15482	 8.19833	C.1
  2596	2	 17.3238	 2.22696	 7.98847	C.1
  2597	2	 17.7391	 2.68676	 7.28161	C.1
  2598	1	 11.3647	-13.8597	 11.9896	N.3
  2599	2	 10.5159	 -14.567	 11.9763	C.1
  2600	2	 10.6584	-14.0984	 11.1741	C.1
  2601	2	 12.2107	-14.4866	 12.3243	C.1
  2602	2	 12.3532	 -14.018	  11.522	C.1
  2603	2	 11.1537	-13.2284	 12.8716	C.1
  2604	2	 11.2962	-12.7598	 12.0693	C.1
  2605	1	-19.7661	 3.19909	 17.4419	N.3
  2606	2	-19.1767	 2.69661	 16.6539	C.1
  2607	2	-18.9531	 2.45666	 17.5348	C.1
  2608	2	-20.8106	 2.98958	 17.1485	C.1
  2609	2	-20.5869	 2.74963	 18.0294	C.1
  2610	2	-19.6466	 4.27101	  17.202	C.1
  2611	2	-19.4229	 4.03106	 18.0829	C.1
  2612	1	0.358344	 18.2278	-13.7009	N.3
  2613	2	0.758416	 18.3872	-12.6833	C.1
  2614	2	 0.20438	 17.6342	-12.7817	C.1
  2615	2	 1.26526	 18.2297	 -14.332	C.1
  2616	2	0.711226	 17.4767	-14.4304	C.1
  2617	2	-0.11759	 19.1959	-13.9397	C.1
  2618	2	-0.671627	 18.4429	-14.0381	C.1
  2619	1	 11.6286	 8.77747	 16.6462	N.3
  2620	2	 12.0089	 8.33934	 15.7058	C.1
  2621	2	 12.0942	 9.27289	 15.7752	C.1
  2622	2	 12.1552	 8.19817	 17.4259	C.1
  2623	2	 12.2405	 9.13171	 17.4953	C.1
  2624	2	 10.5936	 8.39459	 16.7028	C.1
  2625	2	 10.6789	 9.32814	 16.7721	C.1
  2626	1	-18.6362	-3.34385	 12.3115	N.3
  2627	2	-17.8756	-2.54926	 12.4164	C.1
  2628	2	-18.5287	-2.56928	 13.0921	C.1
  2629	2	  -18.03	-4.26275	 12.2164	C.1
  2630	2	-18.6832	-4.28277	 12.8921	C.1
  2631	2	-19.0231	-3.18949	 11.2881	C.1
  2632	2	-19.6763	-3.20952	 11.9638	C.1
  2633	1	-18.7528	-19.7619	 14.0758	N.3
  2634	2	-19.5626	-20.4534	  13.781	C.1
  2635	2	-18.9442	-20.2497	  13.103	C.1
  2636	2	-18.3245	-20.2427	 14.9737	C.1
  2637	2	 -17.706	 -20.039	 14.2957	C.1
  2638	2	-19.2989	-18.8951	 14.4896	C.1
  2639	2	-18.6805	-18.6914	 13.8117	C.1
  2640	1	-0.401877	  14.145	-13.7076	N.3
  2641	2	0.0980175	 14.0299	-12.7289	C.1
  2642	2	-0.582774	 14.6775	-12.7565	C.1
  2643	2	-0.722178	 13.1157	-13.9502	C.1
  2644	2	-1.40297	 13.7633	-13.9777	C.1
  2645	2	0.439718	  14.318	-14.4023	C.1
  2646	2	-0.241073	 14.9656	-14.4299	C.1
  2647	1	 7.06259	-5.92821	-7.12116	N.3
  2648	2	 6.61722	-5.00242	-7.52792	C.1
  2649	2	 7.34583	-5.34291	-8.01453	C.1
  2650	2	 6.19619	-6.60843	-7.03455	C.1
  2651	2	 6.92479	-6.94893	-7.52116	C.1
  2652	2	 7.28145	-5.66303	 -6.0711	C.1
  2653	2	 8.01006	-6.00353	-6.55771	C.1
  2654	1	-1.34291	 4.61376	 16.8428	N.3
  2655	2	-0.786219	 4.55002	 17.7952	C.1
  2656	2	-0.564755	 3.89539	  17.158	C.1
  2657	2	-1.17558	 5.65771	 16.5218	C.1
  2658	2	-0.954115	 5.00308	 15.8846	C.1
  2659	2	-2.39912	 4.61551	 17.1673	C.1
  2660	2	-2.17765	 3.96088	 16.5301	C.1
  2661	1	   15.08	-13.5624	-15.2579	N.3
  2662	2	 14.5441	 -12.765	-15.8037	C.1
  2663	2	 15.0468	-13.3495	-16.3416	C.1
  2664	2	 14.2818	-14.0411	-14.6624	C.1
  2665	2	 14.7846	-14.6255	-15.2002	C.1
  2666	2	 15.6598	-13.0044	-14.5008	C.1
  2667	2	 16.1626	-13.5888	-15.0387	C.1
  2668	1	 10.1296	-5.70594	 17.7026	N.3
  2669	2	 9.81998	-5.40733	 18.7203	C.1
  2670	2	 10.2839	-4.74983	 18.2345	C.1
  2671	2	 9.18634	-6.05192	 17.2428	C.1
  2672	2	  9.6503	-5.39442	  16.757	C.1
  2673	2	 10.6866	 -6.6448	 17.8732	C.1
  2674	2	 11.1506	 -5.9873	 17.3874	C.1
  2675	1	-15.5348	-14.2679	 13.4603	N.3
  2676	2	-15.9722	-14.9006	  12.667	C.1
  2677	2	-16.1213	-13.9775	 12.5701	C.1
  2678	2	-14.4731	 -14.574	 13.4708	C.1
  2679	2	-14.6222	 -13.651	 13.3738	C.1
  2680	2	-15.9353	-14.7138	 14.3886	C.1
  2681	2	-16.0844	-13.7908	 14.2917	C.1
  2682	1	-5.55823	 2.01089	-4.33076	N.3
  2683	2	-5.79683	   2.827	-5.03641	C.1
  2684	2	-5.53346	 3.10493	-4.17793	C.1
  2685	2	-4.81032	 1.41188	-4.88092	C.1
  2686	2	-4.54694	 1.68981	-4.02244	C.1
  2687	2	 -6.4626	 1.37689	-4.36268	C.1
  2688	2	-6.19923	 1.65483	 -3.5042	C.1
  2689	1	-17.0128	 19.3515	-6.41874	N.3
  2690	2	-17.3339	 18.9878	-5.42601	C.1
  2691	2	-17.3474	 19.9215	-5.53332	C.1
  2692	2	-17.6602	 18.7889	-7.11538	C.1
  2693	2	-17.6737	 19.7227	-7.22269	C.1
  2694	2	-16.0241	 18.8771	-6.55388	C.1
  2695	2	-16.0376	 19.8108	-6.66119	C.1
  2696	1	 8.49126	-19.5313	 4.41981	N.3
  2697	2	 7.56421	-18.9308	 4.44851	C.1
  2698	2	 7.55571	 -19.705	 4.98146	C.1
  2699	2	  9.2765	-18.7959	 4.67173	C.1
  2700	2	   9.268	-19.5702	 5.20468	C.1
  2701	2	 8.64583	-19.7058	 3.33976	C.1
  2702	2	 8.63733	-20.4801	  3.8727	C.1
  2703	1	-15.2869	-8.88988	 10.9256	N.3
  2704	2	-14.9119	 -9.0051	 11.9585	C.1
  2705	2	-14.2679	-9.12256	 11.2839	C.1
  2706	2	 -15.774	-7.89827	 10.9428	C.1
  2707	2	  -15.13	-8.01572	 10.2682	C.1
  2708	2	-16.1408	-9.59008	 10.8873	C.1
  2709	2	-15.4968	-9.70753	 10.2127	C.1
  2710	1	 9.47884	 2.40605	-18.0308	N.3
  2711	2	 9.62296	 3.42564	-17.6301	C.1
  2712	2	 10.3936	 2.88752	-17.6406	C.1
  2713	2	 9.01758	 2.58573	-19.0187	C.1
  2714	2	 9.78824	 2.04761	-19.0292	C.1
  2715	2	 8.63999	 2.01396	 -17.428	C.1
  2716	2	 9.41065	 1.47584	-17.4385	C.1
  2717	1	-13.2862	 11.5748	 4.56098	N.3
  2718	2	-12.2827	  11.731	 4.12564	C.1
  2719	2	-12.6082	 12.4432	 4.64566	C.1
  2720	2	-13.1834	 10.6124	 5.09388	C.1
  2721	2	-13.5088	 11.3246	  5.6139	C.1
  2722	2	-13.9043	 11.3128	 3.68338	C.1
  2723	2	-14.2298	  12.025	  4.2034	C.1
  2724	1	 6.29736	 4.37663	 14.4007	N.3
  2725	2	 7.37998	 4.17387	 14.4885	C.1
  2726	2	 7.15822	 5.02476	 14.1562	C.1
  2727	2	 5.91558	 4.15329	 15.4132	C.1
  2728	2	 5.69381	 5.00418	 15.0809	C.1
  2729	2	 5.92917	 3.52639	 13.7987	C.1
  2730	2	  5.7074	 4.37728	 13.4664	C.1
  2731	1	-18.3597	-18.4666	-14.6057	N.3
  2732	2	-19.1978	-17.7743	-14.8037	C.1
  2733	2	-19.2996	-18.3183	-14.0439	C.1
  2734	2	 -17.479	-17.7995	-14.5916	C.1
  2735	2	-17.5808	-18.3435	-13.8318	C.1
  2736	2	-18.2497	  -19.01	-15.5614	C.1
  2737	2	-18.3514	 -19.554	-14.8016	C.1
  2738	1	 12.5148	-15.2987	-17.6705	N.3
  2739	2	 11.7513	-15.6836	-16.9707	C.1
  2740	2	 12.1604	-16.3334	-17.5129	C.1
  2741	2	 13.2009	-14.7366	-17.0116	C.1
  2742	2	 13.6101	-15.3864	-17.5538	C.1
  2743	2	 11.9786	-14.5014	-18.2159	C.1
  2744	2	 12.3877	-15.1512	-18.7581	C.1
  2745	1	-17.9468	 3.58102	-19.3399	N.3
  2746	2	-18.7068	 4.18115	 -19.872	C.1
  2747	2	-18.0264	 3.82569	-20.4145	C.1
  2748	2	-18.5513	 2.83417	-18.7943	C.1
  2749	2	-17.8709	 2.47871	-19.3368	C.1
  2750	2	-17.6029	 4.26092	-18.5397	C.1
  2751	2	-16.9225	 3.90547	-19.0822	C.1
  2752	1	-5.78596	 3.90621	-10.5123	N.3
  2753	2	-4.87395	 4.38098	-10.1076	C.1
  2754	2	-5.61018	  4.3667	-9.52336	C.1
  2755	2	-5.42892	 2.91417	-10.8428	C.1
  2756	2	-6.16515	  2.8999	-10.2585	C.1
  2757	2	-5.95066	 4.44491	-11.4628	C.1
  2758	2	-6.68689	 4.43063	-10.8786	C.1
  2759	1	 9.34662	-12.0374	-11.0509	N.3
  2760	2	 9.41287	-10.9348	-11.0796	C.1
  2761	2	 8.72434	-11.2801	-10.5408	C.1
  2762	2	 10.3681	-12.3444	-10.7623	C.1
  2763	2	 9.67952	-12.6897	-10.2235	C.1
  2764	2	 9.29175	-12.3151	-12.1189	C.1
  2765	2	 8.60321	-12.6604	-11.5801	C.1
  2766	1	 -0.9423	 17.9423	 5.03241	N.3
  2767	2	-0.16344	 17.2121	  5.3171	C.1
  2768	2	 -1.0192	 17.0404	 5.66612	C.1
  2769	2	-0.879686	 17.9613	 3.92942	C.1
  2770	2	-1.73544	 17.7896	 4.27844	C.1
  2771	2	-0.500139	  18.911	 5.32718	C.1
  2772	2	 -1.3559	 18.7394	 5.67619	C.1
  2773	1	-14.7878	  1.8184	-16.6663	N.3
  2774	2	 -13.884	 2.44465	-16.7755	C.1
  2775	2	-13.7573	 1.52775	-16.9393	C.1
  2776	2	-15.5214	  2.3166	-17.3254	C.1
  2777	2	-15.3947	  1.3997	-17.4892	C.1
  2778	2	 -15.148	 2.06929	-15.6523	C.1
  2779	2	-15.0213	 1.15239	-15.8162	C.1
  2780	1	-8.50619	-3.69778	-17.2319	N.3
  2781	2	-8.30422	-2.61381	-17.1603	C.1
  2782	2	-8.97628	-2.93409	-16.5864	C.1
  2783	2	-7.50888	-4.15068	-17.0866	C.1
  2784	2	-8.18095	-4.47096	-16.5127	C.1
  2785	2	-8.69736	-3.84842	-18.3097	C.1
  2786	2	-9.36943	-4.16869	-17.7358	C.1
  2787	1	-9.32864	  4.6042	  7.7605	N.3
  2788	2	-8.46981	 3.90907	 7.74963	C.1
  2789	2	-9.18692	 3.65006	 8.29942	C.1
  2790	2	 -9.5749	  4.7182	 6.68942	C.1
  2791	2	 -10.292	 4.45919	 7.23921	C.1
  2792	2	-8.86554	 5.57384	 8.01776	C.1
  2793	2	-9.58265	 5.31483	 8.56755	C.1
  2794	1	 5.60277	-2.22067	 16.5612	N.3
  2795	2	 5.43566	-2.37495	   15.48	C.1
  2796	2	 6.18665	-2.81471	 15.8352	C.1
  2797	2	 4.63451	-2.50712	 17.0099	C.1
  2798	2	  5.3855	-2.94688	 17.3651	C.1
  2799	2	 5.61165	-1.12029	  16.661	C.1
  2800	2	 6.36264	-1.56005	 17.0162	C.1
@<TRIPOS>BOND
       1	       1	       2	 1
       2	       1	       3	 1
       3	       1	       4	 1
       4	       1	       5	 1
       5	       1	       6	 1
       6	       1	       7	 1
       7	       8	       9	 1
       8	       8	      10	 1
       9	       8	      11	 1
      10	       8	      12	 1
      11	       8	      13	 1
      12	       8	      14	 1
      13	      15	      16	 1
      14	      15	      17	 1
      15	      15	      18	 1
      16	      15	      19	 1
      17	      15	      20	 1
      18	      15	      21	 1
      19	      22	      23	 1
      20	      22	      24	 1
      21	      22	      25	 1
      22	      22	      26	 1
      23	      22	      27	 1
      24	      22	      28	 1
      25	      29	      30	 1
      26	      29	      31	 1
      27	      29	      32	 1
      28	      29	      33	 1
      29	      29	      34	 1
      30	      29	      35	 1
      31	      36	      37	 1
      32	      36	      38	 1
      33	      36	      39	 1
      34	      36	      40	 1
      35	      36	      41	 1
      36	      36	      42	 1
      37	      43	      44	 1
      38	      43	      45	 1
      39	      43	      46	 1
      40	      43	      47	 1
      41	      43	      48	 1
      42	      43	      49	 1
      43	      50	      51	 1
      44	      50	      52	 1
      45	      50	      53	 1
      46	      50	      54	 1
      47	      50	      55	 1
      48	      50	      56	 1
      49	      57	      58	 1
      50	      57	      59	 1
      51	      57	      60	 1
      52	      57	      61	 1
      53	      57	      62	 1
      54	      57	      63	 1
      55	      64	      65	 1
      56	      64	      66	 1
      57	      64	      67	 1
      58	      64	      68	 1
      59	      64	      69	 1
      60	      64	      70	 1
      61	      71	      72	 1
      62	      71	      73	 1
      63	      71	      74	 1
      64	      71	      75	 1
      65	      71	      76	 1
      66	      71	      77	 1
      67	      78	      79	 1
      68	      78	      80	 1
      69	      78	      81	 1
      70	      78	      82	 1
      71	      78	      83	 1
      72	      78	      84	 1
      73	      85	      86	 1
      74	      85	      87	 1
      75	      85	      88	 1
      76	      85	      89	 1
      77	      85	      90	 1
      78	      85	      91	 1
      79	      92	      93	 1
      80	      92	      94	 1
      81	      92	      95	 1
      82	      92	      96	 1
      83	      92	      97	 1
      84	      92	      98	 1
      85	      99	     100	 1
      86	      99	     101	 1
      87	      99	     102	 1
      88	      99	     103	 1
      89	      99	     104	 1
      90	      99	     105	 1
      91	     106	     107	 1
      92	     106	     108	 1
      93	     106	     109	 1
      94	     106	     110	 1
      95	     106	     111	 1
      96	     106	     112	 1
      97	     113	     114	 1
      98	     113	     115	 1
      99	     113	     116	 1
     100	     113	     117	 1
     101	     113	     118	 1
     102	     113	     119	 1
     103	     120	     121	 1
     104	     120	     122	 1
     105	     120	     123	 1
     106	     120	     124	 1
     107	     120	     125	 1
     108	     120	     126	 1
     109	     127	     128	 1
     110	     127	     129	 1
     111	     127	     130	 1
     112	     127	     131	 1
     113	     127	     132	 1
     114	     127	     133	 1
     115	     134	     135	 1
     116	     134	     136	 1
     117	     134	     137	 1
     118	     134	     138	 1
     119	     134	     139	 1
     120	     134	     140	 1
     121	     141	     142	 1
     122	     141	     143	 1
     123	     141	     144	 1
     124	     141	     145	 1
     125	     141	     146	 1
     126	     141	     147	 1
     127	     148	     149	 1
     128	     148	     150	 1
     129	     148	     151	 1
     130	     148	     152	 1
     131	     148	     153	 1
     132	     148	     154	 1
     133	     155	     156	 1
     134	     155	     157	 1
     135	     155	     158	 1
     136	     155	     159	 1
     137	     155	     160	 1
     138	     155	     161	 1
     139	     162	     163	 1
     140	     162	     164	 1
     141	     162	     165	 1
     142	     162	     166	 1
     143	     162	     167	 1
     144	     162	     168	 1
     145	     169	     170	 1
     146	     169	     171	 1
     147	     169	     172	 1
     148	     169	     173	 1
     149	     169	     174	 1
     150	     169	     175	 1
     151	     176	     177	 1
     152	     176	     178	 1
     153	     176	     179	 1
     154	     176	     180	 1
     155	     176	     181	 1
     156	     176	     182	 1
     157	     183	     184	 1
     158	     183	     185	 1
     159	     183	     186	 1
     160	     183	     187	 1
     161	     183	     188	 1
     162	     183	     189	 1
     163	     190	     191	 1
     164	     190	     192	 1
     165	     190	     193	 1
     166	     190	     194	 1
     167	     190	     195	 1
     168	     190	     196	 1
     169	     197	     198	 1
     170	     197	     199	 1
     171	     197	     200	 1
     172	     197	     201	 1
     173	     197	     202	 1
     174	     197	     203	 1
     175	     204	     205	 1
     176	     204	     206	 1
     177	     204	     207	 1
     178	     204	     208	 1
     179	     204	     209	 1
     180	     204	     210	 1
     181	     211	     212	 1
     182	     211	     213	 1
     183	     211	     214	 1
     184	     211	     215	 1
     185	     211	     216	 1
     186	     211	     217	 1
     187	     218	     219	 1
     188	     218	     220	 1
     189	     218	     221	 1
     190	     218	     222	 1
     191	     218	     223	 1
     192	     218	     224	 1
     193	     225	     226	 1
     194	     225	     227	 1
     195	     225	     228	 1
     196	     225	     229	 1
     197	     225	     230	 1
     198	     225	     231	 1
     199	     232	     233	 1
     200	     232	     234	 1
     201	     232	     235	 1
     202	     232	     236	 1
     203	     232	     237	 1
     204	     232	     238	 1
     205	     239	     240	 1
     206	     239	     241	 1
     207	     239	     242	 1
     208	     239	     243	 1
     209	     239	     244	 1
     210	     239	     245	 1
     211	     246	     247	 1
     212	     246	     248	 1
     213	     246	     249	 1
     214	     246	     250	 1
     215	     246	     251	 1
     216	     246	     252	 1
     217	     253	     254	 1
     218	     253	     255	 1
     219	     253	     256	 1
     220	     253	     257	 1
     221	     253	     258	 1
     222	     253	     259	 1
     223	     260	     261	 1
     224	     260	     262	 1
     225	     260	     263	 1
     226	     260	     264	 1
     227	     260	     265	 1
     228	     260	     266	 1
     229	     267	     268	 1
     230	     267	     269	 1
     231	     267	     270	 1
     232	     267	     271	 1
     233	     267	     272	 1
     234	     267	     273	 1
     235	     274	     275	 1
     236	     274	     276	 1
     237	     274	     277	 1
     238	     274	     278	 1
     239	     274	     279	 1
     240	     274	     280	 1
     241	     281	     282	 1
     242	     281	     283	 1
     243	     281	     284	 1
     244	     281	     285	 1
     245	     281	     286	 1
     246	     281	     287	 1
     247	     288	     289	 1
     248	     288	     290	 1
     249	     288	     291	 1
     250	     288	     292	 1
     251	     288	     293	 1
     252	     288	     294	 1
     253	     295	     296	 1
     254	     295	     297	 1
     255	     295	     298	 1
     256	     295	     299	 1
     257	     295	     300	 1
     258	     295	     301	 1
     259	     302	     303	 1
     260	     302	     304	 1
     261	     302	     305	 1
     262	     302	     306	 1
     263	     302	     307	 1
     264	     302	     308	 1
     265	     309	     310	 1
     266	     309	     311	 1
     267	     309	     312	 1
     268	     309	     313	 1
     269	     309	     314	 1
     270	     309	     315	 1
     271	     316	     317	 1
     272	     316	     318	 1
     273	     316	     319	 1
     274	     316	     320	 1
     275	     316	     321	 1
     276	     316	     322	 1
     277	     323	     324	 1
     278	     323	     325	 1
     279	     323	     326	 1
     280	     323	     327	 1
     281	     323	     328	 1
     282	     323	     329	 1
     283	     330	     331	 1
     284	     330	     332	 1
     285	     330	     333	 1
     286	     330	     334	 1
     287	     330	     335	 1
     288	     330	     336	 1
     289	     337	     338	 1
     290	     337	     339	 1
     291	     337	     340	 1
     292	     337	     341	 1
     293	     337	     342	 1
     294	     337	     343	 1
     295	     344	     345	 1
     296	     344	     346	 1
     297	     344	     347	 1
     298	     344	     348	 1
     299	     344	     349	 1
     300	     344	     350	 1
     301	     351	     352	 1
     302	     351	     353	 1
     303	     351	     354	 1
     304	     351	     355	 1
     305	     351	     356	 1
     306	     351	     357	 1
     307	     358	     359	 1
     308	     358	     360	 1
     309	     358	     361	 1
     310	     358	     362	 1
     311	     358	     363	 1
     312	     358	     364	 1
     313	     365	     366	 1
     314	     365	     367	 1
     315	     365	     368	 1
     316	     365	     369	 1
     317	     365	     370	 1
     318	     365	     371	 1
     319	     372	     373	 1
     320	     372	     374	 1
     321	     372	     375	 1
     322	     372	     376	 1
     323	     372	     377	 1
     324	     372	     378	 1
     325	     379	     380	 1
     326	     379	     381	 1
     327	     379	     382	 1
     328	     379	     383	 1
     329	     379	     384	 1
     330	     379	     385	 1
     331	     386	     387	 1
     332	     386	     388	 1
     333	     386	     389	 1
     334	     386	     390	 1
     335	     386	     391	 1
     336	     386	     392	 1
     337	     393	     394	 1
     338	     393	     395	 1
     339	     393	     396	 1
     340	     393	     397	 1
     341	     393	     398	 1
     342	     393	     399	 1
     343	     400	     401	 1
     344	     400	     402	 1
     345	     400	     403	 1
     346	     400	     404	 1
     347	     400	     405	 1
     348	     400	     406	 1
     349	     407	     408	 1
     350	     407	     409	 1
     351	     407	     410	 1
     352	     407	     411	 1
     353	     407	     412	 1
     354	     407	     413	 1
     355	     414	     415	 1
     356	     414	     416	 1
     357	     414	     417	 1
     358	     414	     418	 1
     359	     414	     419	 1
     360	     414	     420	 1
     361	     421	     422	 1
     362	     421	     423	 1
     363	     421	     424	 1
     364	     421	     425	 1
     365	     421	     426	 1
     366	     421	     427	 1
     367	     428	     429	 1
     368	     428	     430	 1
     369	     428	     431	 1
     370	     428	     432	 1
     371	     428	     433	 1
     372	     428	     434	 1
     373	     435	     436	 1
     374	     435	     437	 1
     375	     435	     438	 1
     376	     435	     439	 1
     377	     435	     440	 1
     378	     435	     441	 1
     379	     442	     443	 1
     380	     442	     444	 1
     381	     442	     445	 1
     382	     442	     446	 1
     383	     442	     447	 1
     384	     442	     448	 1
     385	     449	     450	 1
     386	     449	     451	 1
     387	     449	     452	 1
     388	     449	     453	 1
     389	     449	     454	 1
     390	     449	     455	 1
     391	     456	     457	 1
     392	     456	     458	 1
     393	     456	     459	 1
     394	     456	     460	 1
     395	     456	     461	 1
     396	     456	     462	 1
     397	     463	     464	 1
     398	     463	     465	 1
     399	     463	     466	 1
     400	     463	     467	 1
     401	     463	     468	 1
     402	     463	     469	 1
     403	     470	     471	 1
     404	     470	     472	 1
     405	     470	     473	 1
     406	     470	     474	 1
     407	     470	     475	 1
     408	     470	     476	 1
     409	     477	     478	 1
     410	     477	     479	 1
     411	     477	     480	 1
     412	     477	     481	 1
     413	     477	     482	 1
     414	     477	     483	 1
     415	     484	     485	 1
     416	     484	     486	 1
     417	     484	     487	 1
     418	     484	     488	 1
     419	     484	     489	 1
     420	     484	     490	 1
     421	     491	     492	 1
     422	     491	     493	 1
     423	     491	     494	 1
     424	     491	     495	 1
     425	     491	     496	 1
     426	     491	     497	 1
     427	     498	     499	 1
     428	     498	     500	 1
     429	     498	     501	 1
     430	     498	     502	 1
     431	     498	     503	 1
     432	     498	     504	 1
     433	     505	     506	 1
     434	     505	     507	 1
     435	     505	     508	 1
     436	     505	     509	 1
     437	     505	     510	 1
     438	     505	     511	 1
     439	     512	     513	 1
     440	     512	     514	 1
     441	     512	     515	 1
     442	     512	     516	 1
     443	     512	     517	 1
     444	     512	     518	 1
     445	     519	     520	 1
     446	     519	     521	 1
     447	     519	     522	 1
     448	     519	     523	 1
     449	     519	     524	 1
     450	     519	     525	 1
     451	     526	     527	 1
     452	     526	     528	 1
     453	     526	     529	 1
     454	     526	     530	 1
     455	     526	     531	 1
     456	     526	     532	 1
     457	     533	     534	 1
     458	     533	     535	 1
     459	     533	     536	 1
     460	     533	     537	 1
     461	     533	     538	 1
     462	     533	     539	 1
     463	     540	     541	 1
     464	     540	     542	 1
     465	     540	     543	 1
     466	     540	     544	 1
     467	     540	     545	 1
     468	     540	     546	 1
     469	     547	     548	 1
     470	     547	     549	 1
     471	     547	     550	 1
     472	     547	     551	 1
     473	     547	     552	 1
     474	     547	     553	 1
     475	     554	     555	 1
     476	     554	     556	 1
     477	     554	     557	 1
     478	     554	     558	 1
     479	     554	     559	 1
     480	     554	     560	 1
     481	     561	     562	 1
     482	     561	     563	 1
     483	     561	     564	 1
     484	     561	     565	 1
     485	     561	     566	 1
     486	     561	     567	 1
     487	     568	     569	 1
     488	     568	     570	 1
     489	     568	     571	 1
     490	     568	     572	 1
     491	     568	     573	 1
     492	     568	     574	 1
     493	     575	     576	 1
     494	     575	     577	 1
     495	     575	     578	 1
     496	     575	     579	 1
     497	     575	     580	 1
     498	     575	     581	 1
     499	     582	     583	 1
     500	     582	     584	 1
     501	     582	     585	 1
     502	     582	     586	 1
     503	     582	     587	 1
     504	     582	     588	 1
     505	     589	     590	 1
     506	     589	     591	 1
     507	     589	     592	 1
     508	     589	     593	 1
     509	     589	     594	 1
     510	     589	     595	 1
     511	     596	     597	 1
     512	     596	     598	 1
     513	     596	     599	 1
     514	     596	     600	 1
     515	     596	     601	 1
     516	     596	     602	 1
     517	     603	     604	 1
     518	     603	     605	 1
     519	     603	     606	 1
     520	     603	     607	 1
     521	     603	     608	 1
     522	     603	     609	 1
     523	     610	     611	 1
     524	     610	     612	 1
     525	     610	     613	 1
     526	     610	     614	 1
     527	     610	     615	 1
     528	     610	     616	 1
     529	     617	     618	 1
     530	     617	     619	 1
     531	     617	     620	 1
     532	     617	     621	 1
     533	     617	     622	 1
     534	     617	     623	 1
     535	     624	     625	 1
     536	     624	     626	 1
     537	     624	     627	 1
     538	     624	     628	 1
     539	     624	     629	 1
     540	     624	     630	 1
     541	     631	     632	 1
     542	     631	     633	 1
     543	     631	     634	 1
     544	     631	     635	 1
     545	     631	     636	 1
     546	     631	     637	 1
     547	     638	     639	 1
     548	     638	     640	 1
     549	     638	     641	 1
     550	     638	     642	 1
     551	     638	     643	 1
     552	     638	     644	 1
     553	     645	     646	 1
     554	     645	     647	 1
     555	     645	     648	 1
     556	     645	     649	 1
     557	     645	     650	 1
     558	     645	     651	 1
     559	     652	     653	 1
     560	     652	     654	 1
     561	     652	     655	 1
     562	     652	     656	 1
     563	     652	     657	 1
     564	     652	     658	 1
     565	     659	     660	 1
     566	     659	     661	 1
     567	     659	     662	 1
     568	     659	     663	 1
     569	     659	     664	 1
     570	     659	     665	 1
     571	     666	     667	 1
     572	     666	     668	 1
     573	     666	     669	 1
     574	     666	     670	 1
     575	     666	     671	 1
     576	     666	     672	 1
     577	     673	     674	 1
     578	     673	     675	 1
     579	     673	     676	 1
     580	     673	     677	 1
     581	     673	     678	 1
     582	     673	     679	 1
     583	     680	     681	 1
     584	     680	     682	 1
     585	     680	     683	 1
     586	     680	     684	 1
     587	     680	     685	 1
     588	     680	     686	 1
     589	     687	     688	 1
     590	     687	     689	 1
     591	     687	     690	 1
     592	     687	     691	 1
     593	     687	     692	 1
     594	     687	     693	 1
     595	     694	     695	 1
     596	     694	     696	 1
     597	     694	     697	 1
     598	     694	     698	 1
     599	     694	     699	 1
     600	     694	     700	 1
     601	     701	     702	 1
     602	     701	     703	 1
     603	     701	     704	 1
     604	     701	     705	 1
     605	     701	     706	 1
     606	     701	     707	 1
     607	     708	     709	 1
     608	     708	     710	 1
     609	     708	     711	 1
     610	     708	     712	 1
     611	     708	     713	 1
     612	     708	     714	 1
     613	     715	     716	 1
     614	     715	     717	 1
     615	     715	     718	 1
     616	     715	     719	 1
     617	     715	     720	 1
     618	     715	     721	 1
     619	     722	     723	 1
     620	     722	     724	 1
     621	     722	     725	 1
     622	     722	     726	 1
     623	     722	     727	 1
     624	     722	     728	 1
     625	     729	     730	 1
     626	     729	     731	 1
     627	     729	     732	 1
     628	     729	     733	 1
     629	     729	     734	 1
     630	     729	     735	 1
     631	     736	     737	 1
     632	     736	     738	 1
     633	     736	     739	 1
     634	     736	     740	 1
     635	     736	     741	 1
     636	     736	     742	 1
     637	     743	     744	 1
     638	     743	     745	 1
     639	     743	     746	 1
     640	     743	     747	 1
     641	     743	     748	 1
     642	     743	     749	 1
     643	     750	     751	 1
     644	     750	     752	 1
     645	     750	     753	 1
     646	     750	     754	 1
     647	     750	     755	 1
     648	     750	     756	 1
     649	     757	     758	 1
     650	     757	     759	 1
     651	     757	     760	 1
     652	     757	     761	 1
     653	     757	     762	 1
     654	     757	     763	 1
     655	     764	     765	 1
     656	     764	     766	 1
     657	     764	     767	 1
     658	     764	     768	 1
     659	     764	     769	 1
     660	     764	     770	 1
     661	     771	     772	 1
     662	     771	     773	 1
     663	     771	     774	 1
     664	     771	     775	 1
     665	     771	     776	 1
     666	     771	     777	 1
     667	     778	     779	 1
     668	     778	     780	 1
     669	     778	     781	 1
     670	     778	     782	 1
     671	     778	     783	 1
     672	     778	     784	 1
     673	     785	     786	 1
     674	     785	     787	 1
     675	     785	     788	 1
     676	     785	     789	 1
     677	     785	     790	 1
     678	     785	     791	 1
     679	     792	     793	 1
     680	     792	     794	 1
     681	     792	     795	 1
     682	     792	     796	 1
     683	     792	     797	 1
     684	     792	     798	 1
     685	     799	     800	 1
     686	     799	     801	 1
     687	     799	     802	 1
     688	     799	     803	 1
     689	     799	     804	 1
     690	     799	     805	 1
     691	     806	     807	 1
     692	     806	     808	 1
     693	     806	     809	 1
     694	     806	     810	 1
     695	     806	     811	 1
     696	     806	     812	 1
     697	     813	     814	 1
     698	     813	     815	 1
     699	     813	     816	 1
     700	     813	     817	 1
     701	     813	     818	 1
     702	     813	     819	 1
     703	     820	     821	 1
     704	     820	     822	 1
     705	     820	     823	 1
     706	     820	     824	 1
     707	     820	     825	 1
     708	     820	     826	 1
     709	     827	     828	 1
     710	     827	     829	 1
     711	     827	     830	 1
     712	     827	     831	 1
     713	     827	     832	 1
     714	     827	     833	 1
     715	     834	     835	 1
     716	     834	     836	 1
     717	     834	     837	 1
     718	     834	     838	 1
     719	     834	     839	 1
     720	     834	     840	 1
     721	     841	     842	 1
     722	     841	     843	 1
     723	     841	     844	 1
     724	     841	     845	 1
     725	     841	     846	 1
     726	     841	     847	 1
     727	     848	     849	 1
     728	     848	     850	 1
     729	     848	     851	 1
     730	     848	     852	 1
     731	     848	     853	 1
     732	     848	     854	 1
     733	     855	     856	 1
     734	     855	     857	 1
     735	     855	     858	 1
     736	     855	     859	 1
     737	     855	     860	 1
     738	     855	     861	 1
     739	     862	     863	 1
     740	     862	     864	 1
     741	     862	     865	 1
     742	     862	     866	 1
     743	     862	     867	 1
     744	     862	     868	 1
     745	     869	     870	 1
     746	     869	     871	 1
     747	     869	     872	 1
     748	     869	     873	 1
     749	     869	     874	 1
     750	     869	     875	 1
     751	     876	     877	 1
     752	     876	     878	 1
     753	     876	     879	 1
     754	     876	     880	 1
     755	     876	     881	 1
     756	     876	     882	 1
     757	     883	     884	 1
     758	     883	     885	 1
     759	     883	     886	 1
     760	     883	     887	 1
     761	     883	     888	 1
     762	     883	     889	 1
     763	     890	     891	 1
     764	     890	     892	 1
     765	     890	     893	 1
     766	     890	     894	 1
     767	     890	     895	 1
     768	     890	     896	 1
     769	     897	     898	 1
     770	     897	     899	 1
     771	     897	     900	 1
     772	     897	     901	 1
     773	     897	     902	 1
     774	     897	     903	 1
     775	     904	     905	 1
     776	     904	     906	 1
     777	     904	     907	 1
     778	     904	     908	 1
     779	     904	     909	 1
     780	     904	     910	 1
     781	     911	     912	 1
     782	     911	     913	 1
     783	     911	     914	 1
     784	     911	     915	 1
     785	     911	     916	 1
     786	     911	     917	 1
     787	     918	     919	 1
     788	     918	     920	 1
     789	     918	     921	 1
     790	     918	     922	 1
     791	     918	     923	 1
     792	     918	     924	 1
     793	     925	     926	 1
     794	     925	     927	 1
     795	     925	     928	 1
     796	     925	     929	 1
     797	     925	     930	 1
     798	     925	     931	 1
     799	     932	     933	 1
     800	     932	     934	 1
     801	     932	     935	 1
     802	     932	     936	 1
     803	     932	     937	 1
     804	     932	     938	 1
     805	     939	     940	 1
     806	     939	     941	 1
     807	     939	     942	 1
     808	     939	     943	 1
     809	     939	     944	 1
     810	     939	     945	 1
     811	     946	     947	 1
     812	     946	     948	 1
     813	     946	     949	 1
     814	     946	     950	 1
     815	     946	     951	 1
     816	     946	     952	 1
     817	     953	     954	 1
     818	     953	     955	 1
     819	     953	     956	 1
     820	     953	     957	 1
     821	     953	     958	 1
     822	     953	     959	 1
     823	     960	     961	 1
     824	     960	     962	 1
     825	     960	     963	 1
     826	     960	     964	 1
     827	     960	     965	 1
     828	     960	     966	 1
     829	     967	     968	 1
     830	     967	     969	 1
     831	     967	     970	 1
     832	     967	     971	 1
     833	     967	     972	 1
     834	     967	     973	 1
     835	     974	     975	 1
     836	     974	     976	 1
     837	     974	     977	 1
     838	     974	     978	 1
     839	     974	     979	 1
     840	     974	     980	 1
     841	     981	     982	 1
     842	     981	     983	 1
     843	     981	     984	 1
     844	     981	     985	 1
     845	     981	     986	 1
     846	     981	     987	 1
     847	     988	     989	 1
     848	     988	     990	 1
     849	     988	     991	 1
     850	     988	     992	 1
     851	     988	     993	 1
     852	     988	     994	 1
     853	     995	     996	 1
     854	     995	     997	 1
     855	     995	     998	 1
     856	     995	     999	 1
     857	     995	    1000	 1
     858	     995	    1001	 1
     859	    1002	    1003	 1
     860	    1002	    1004	 1
     861	    1002	    1005	 1
     862	    1002	    1006	 1
     863	    1002	    1007	 1
     864	    1002	    1008	 1
     865	    1009	    1010	 1
     866	    1009	    1011	 1
     867	    1009	    1012	 1
     868	    1009	    1013	 1
     869	    1009	    1014	 1
     870	    1009	    1015	 1
     871	    1016	    1017	 1
     872	    1016	    1018	 1
     873	    1016	    1019	 1
     874	    1016	    1020	 1
     875	    1016	    1021	 1
     876	    1016	    1022	 1
     877	    1023	    1024	 1
     878	    1023	    1025	 1
     879	    1023	    1026	 1
     880	    1023	    1027	 1
     881	    1023	    1028	 1
     882	    1023	    1029	 1
     883	    1030	    1031	 1
     884	    1030	    1032	 1
     885	    1030	    1033	 1
     886	    1030	    1034	 1
     887	    1030	    1035	 1
     888	    1030	    1036	 1
     889	    1037	    1038	 1
     890	    1037	    1039	 1
     891	    1037	    1040	 1
     892	    1037	    1041	 1
     893	    1037	    1042	 1
     894	    1037	    1043	 1
     895	    1044	    1045	 1
     896	    1044	    1046	 1
     897	    1044	    1047	 1
     898	    1044	    1048	 1
     899	    1044	    1049	 1
     900	    1044	    1050	 1
     901	    1051	    1052	 1
     902	    1051	    1053	 1
     903	    1051	    1054	 1
     904	    1051	    1055	 1
     905	    1051	    1056	 1
     906	    1051	    1057	 1
     907	    1058	    1059	 1
     908	    1058	    1060	 1
     909	    1058	    1061	 1
     910	    1058	    1062	 1
     911	    1058	    1063	 1
     912	    1058	    1064	 1
     913	    1065	    1066	 1
     914	    1065	    1067	 1
     915	    1065	    1068	 1
     916	    1065	    1069	 1
     917	    1065	    1070	 1
     918	    1065	    1071	 1
     919	    1072	    1073	 1
     920	    1072	    1074	 1
     921	    1072	    1075	 1
     922	    1072	    1076	 1
     923	    1072	    1077	 1
     924	    1072	    1078	 1
     925	    1079	    1080	 1
     926	    1079	    1081	 1
     927	    1079	    1082	 1
     928	    1079	    1083	 1
     929	    1079	    1084	 1
     930	    1079	    1085	 1
     931	    1086	    1087	 1
     932	    1086	    1088	 1
     933	    1086	    1089	 1
     934	    1086	    1090	 1
     935	    1086	    1091	 1
     936	    1086	    1092	 1
     937	    1093	    1094	 1
     938	    1093	    1095	 1
     939	    1093	    1096	 1
     940	    1093	    1097	 1
     941	    1093	    1098	 1
     942	    1093	    1099	 1
     943	    1100	    1101	 1
     944	    1100	    1102	 1
     945	    1100	    1103	 1
     946	    1100	    1104	 1
     947	    1100	    1105	 1
     948	    1100	    1106	 1
     949	    1107	    1108	 1
     950	    1107	    1109	 1
     951	    1107	    1110	 1
     952	    1107	    1111	 1
     953	    1107	    1112	 1
     954	    1107	    1113	 1
     955	    1114	    1115	 1
     956	    1114	    1116	 1
     957	    1114	    1117	 1
     958	    1114	    1118	 1
     959	    1114	    1119	 1
     960	    1114	    1120	 1
     961	    1121	    1122	 1
     962	    1121	    1123	 1
     963	    1121	    1124	 1
     964	    1121	    1125	 1
     965	    1121	    1126	 1
     966	    1121	    1127	 1
     967	    1128	    1129	 1
     968	    1128	    1130	 1
     969	    1128	    1131	 1
     970	    1128	    1132	 1
     971	    1128	    1133	 1
     972	    1128	    1134	 1
     973	    1135	    1136	 1
     974	    1135	    1137	 1
     975	    1135	    1138	 1
     976	    1135	    1139	 1
     977	    1135	    1140	 1
     978	    1135	    1141	 1
     979	    1142	    1143	 1
     980	    1142	    1144	 1
     981	    1142	    1145	 1
     982	    1142	    1146	 1
     983	    1142	    1147	 1
     984	    1142	    1148	 1
     985	    1149	    1150	 1
     986	    1149	    1151	 1
     987	    1149	    1152	 1
     988	    1149	    1153	 1
     989	    1149	    1154	 1
     990	    1149	    1155	 1
     991	    1156	    1157	 1
     992	    1156	    1158	 1
     993	    1156	    1159	 1
     994	    1156	    1160	 1
     995	    1156	    1161	 1
     996	    1156	    1162	 1
     997	    1163	    1164	 1
     998	    1163	    1165	 1
     999	    1163	    1166	 1
    1000	    1163	    1167	 1
    1001	    1163	    1168	 1
    1002	    1163	    1169	 1
    1003	    1170	    1171	 1
    1004	    1170	    1172	 1
    1005	    1170	    1173	 1
    1006	    1170	    1174	 1
    1007	    1170	    1175	 1
    1008	    1170	    1176	 1
    1009	    1177	    1178	 1
    1010	    1177	    1179	 1
    1011	    1177	    1180	 1
    1012	    1177	    1181	 1
    1013	    1177	    1182	 1
    1014	    1177	    1183	 1
    1015	    1184	    1185	 1
    1016	    1184	    1186	 1
    1017	    1184	    1187	 1
    1018	    1184	    1188	 1
    1019	    1184	    1189	 1
    1020	    1184	    1190	 1
    1021	    1191	    1192	 1
    1022	    1191	    1193	 1
    1023	    1191	    1194	 1
    1024	    1191	    1195	 1
    1025	    1191	    1196	 1
    1026	    1191	    1197	 1
    1027	    1198	    1199	 1
    1028	    1198	    1200	 1
    1029	    1198	    1201	 1
    1030	    1198	    1202	 1
    1031	    1198	    1203	 1
    1032	    1198	    1204	 1
    1033	    1205	    1206	 1
    1034	    1205	    1207	 1
    1035	    1205	    1208	 1
    1036	    1205	    1209	 1
    1037	    1205	    1210	 1
    1038	    1205	    1211	 1
    1039	    1212	    1213	 1
    1040	    1212	    1214	 1
    1041	    1212	    1215	 1
    1042	    1212	    1216	 1
    1043	    1212	    1217	 1
    1044	    1212	    1218	 1
    1045	    1219	    1220	 1
    1046	    1219	    1221	 1
    1047	    1219	    1222	 1
    1048	    1219	    1223	 1
    1049	    1219	    1224	 1
    1050	    1219	    1225	 1
    1051	    1226	    1227	 1
    1052	    1226	    1228	 1
    1053	    1226	    1229	 1
    1054	    1226	    1230	 1
    1055	    1226	    1231	 1
    1056	    1226	    1232	 1
    1057	    1233	    1234	 1
    1058	    1233	    1235	 1
    1059	    1233	    1236	 1
    1060	    1233	    1237	 1
    1061	    1233	    1238	 1
    1062	    1233	    1239	 1
    1063	    1240	    1241	 1
    1064	    1240	    1242	 1
    1065	    1240	    1243	 1
    1066	    1240	    1244	 1
    1067	    1240	    1245	 1
    1068	    1240	    1246	 1
    1069	    1247	    1248	 1
    1070	    1247	    1249	 1
    1071	    1247	    1250	 1
    1072	    1247	    1251	 1
    1073	    1247	    1252	 1
    1074	    1247	    1253	 1
    1075	    1254	    1255	 1
    1076	    1254	    1256	 1
    1077	    1254	    1257	 1
    1078	    1254	    1258	 1
    1079	    1254	    1259	 1
    1080	    1254	    1260	 1
    1081	    1261	    1262	 1
    1082	    1261	    1263	 1
    1083	    1261	    1264	 1
    1084	    1261	    1265	 1
    1085	    1261	    1266	 1
    1086	    1261	    1267	 1
    1087	    1268	    1269	 1
    1088	    1268	    1270	 1
    1089	    1268	    1271	 1
    1090	    1268	    1272	 1
    1091	    1268	    1273	 1
    1092	    1268	    1274	 1
    1093	    1275	    1276	 1
    1094	    1275	    1277	 1
    1095	    1275	    1278	 1
    1096	    1275	    1279	 1
    1097	    1275	    1280	 1
    1098	    1275	    1281	 1
    1099	    1282	    1283	 1
    1100	    1282	    1284	 1
    1101	    1282	    1285	 1
    1102	    1282	    1286	 1
    1103	    1282	    1287	 1
    1104	    1282	    1288	 1
    1105	    1289	    1290	 1
    1106	    1289	    1291	 1
    1107	    1289	    1292	 1
    1108	    1289	    1293	 1
    1109	    1289	    1294	 1
    1110	    1289	    1295	 1
    1111	    1296	    1297	 1
    1112	    1296	    1298	 1
    1113	    1296	    1299	 1
    1114	    1296	    1300	 1
    1115	    1296	    1301	 1
    1116	    1296	    1302	 1
    1117	    1303	    1304	 1
    1118	    1303	    1305	 1
    1119	    1303	    1306	 1
    1120	    1303	    1307	 1
    1121	    1303	    1308	 1
    1122	    1303	    1309	 1
    1123	    1310	    1311	 1
    1124	    1310	    1312	 1
    1125	    1310	    1313	 1
    1126	    1310	    1314	 1
    1127	    1310	    1315	 1
    1128	    1310	    1316	 1
    1129	    1317	    1318	 1
    1130	    1317	    1319	 1
    1131	    1317	    1320	 1
    1132	    1317	    1321	 1
    1133	    1317	    1322	 1
    1134	    1317	    1323	 1
    1135	    1324	    1325	 1
    1136	    1324	    1326	 1
    1137	    1324	    1327	 1
    1138	    1324	    1328	 1
    1139	    1324	    1329	 1
    1140	    1324	    1330	 1
    1141	    1331	    1332	 1
    1142	    1331	    1333	 1
    1143	    1331	    1334	 1
    1144	    1331	    1335	 1
    1145	    1331	    1336	 1
    1146	    1331	    1337	 1
    1147	    1338	    1339	 1
    1148	    1338	    1340	 1
    1149	    1338	    1341	 1
    1150	    1338	    1342	 1
    1151	    1338	    1343	 1
    1152	    1338	    1344	 1
    1153	    1345	    1346	 1
    1154	    1345	    1347	 1
    1155	    1345	    1348	 1
    1156	    1345	    1349	 1
    1157	    1345	    1350	 1
    1158	    1345	    1351	 1
    1159	    1352	    1353	 1
    1160	    1352	    1354	 1
    1161	    1352	    1355	 1
    1162	    1352	    1356	 1
    1163	    1352	    1357	 1
    1164	    1352	    1358	 1
    1165	    1359	    1360	 1
    1166	    1359	    1361	 1
    1167	    1359	    1362	 1
    1168	    1359	    1363	 1
    1169	    1359	    1364	 1
    1170	    1359	    1365	 1
    1171	    1366	    1367	 1
    1172	    1366	    1368	 1
    1173	    1366	    1369	 1
    1174	    1366	    1370	 1
    1175	    1366	    1371	 1
    1176	    1366	    1372	 1
    1177	    1373	    1374	 1
    1178	    1373	    1375	 1
    1179	    1373	    1376	 1
    1180	    1373	    1377	 1
    1181	    1373	    1378	 1
    1182	    1373	    1379	 1
    1183	    1380	    1381	 1
    1184	    1380	    1382	 1
    1185	    1380	    1383	 1
    1186	    1380	    1384	 1
    1187	    1380	    1385	 1
    1188	    1380	    1386	 1
    1189	    1387	    1388	 1
    1190	    1387	    1389	 1
    1191	    1387	    1390	 1
    1192	    1387	    1391	 1
    1193	    1387	    1392	 1
    1194	    1387	    1393	 1
    1195	    1394	    1395	 1
    1196	    1394	    1396	 1
    1197	    1394	    1397	 1
    1198	    1394	    1398	 1
    1199	    1394	    1399	 1
    1200	    1394	    1400	 1
    1201	    1401	    1402	 1
    1202	    1401	    1403	 1
    1203	    1401	    1404	 1
    1204	    1401	    1405	 1
    1205	    1401	    1406	 1
    1206	    1401	    1407	 1
    1207	    1408	    1409	 1
    1208	    1408	    1410	 1
    1209	    1408	    1411	 1
    1210	    1408	    1412	 1
    1211	    1408	    1413	 1
    1212	    1408	    1414	 1
    1213	    1415	    1416	 1
    1214	    1415	    1417	 1
    1215	    1415	    1418	 1
    1216	    1415	    1419	 1
    1217	    1415	    1420	 1
    1218	    1415	    1421	 1
    1219	    1422	    1423	 1
    1220	    1422	    1424	 1
    1221	    1422	    1425	 1
    1222	    1422	    1426	 1
    1223	    1422	    1427	 1
    1224	    1422	    1428	 1
    1225	    1429	    1430	 1
    1226	    1429	    1431	 1
    1227	    1429	    1432	 1
    1228	    1429	    1433	 1
    1229	    1429	    1434	 1
    1230	    1429	    1435	 1
    1231	    1436	    1437	 1
    1232	    1436	    1438	 1
    1233	    1436	    1439	 1
    1234	    1436	    1440	 1
    1235	    1436	    1441	 1
    1236	    1436	    1442	 1
    1237	    1443	    1444	 1
    1238	    1443	    1445	 1
    1239	    1443	    1446	 1
    1240	    1443	    1447	 1
    1241	    1443	    1448	 1
    1242	    1443	    1449	 1
    1243	    1450	    1451	 1
    1244	    1450	    1452	 1
    1245	    1450	    1453	 1
    1246	    1450	    1454	 1
    1247	    1450	    1455	 1
    1248	    1450	    1456	 1
    1249	    1457	    1458	 1
    1250	    1457	    1459	 1
    1251	    1457	    1460	 1
    1252	    1457	    1461	 1
    1253	    1457	    1462	 1
    1254	    1457	    1463	 1
    1255	    1464	    1465	 1
    1256	    1464	    1466	 1
    1257	    1464	    1467	 1
    1258	    1464	    1468	 1
    1259	    1464	    1469	 1
    1260	    1464	    1470	 1
    1261	    1471	    1472	 1
    1262	    1471	    1473	 1
    1263	    1471	    1474	 1
    1264	    1471	    1475	 1
    1265	    1471	    1476	 1
    1266	    1471	    1477	 1
    1267	    1478	    1479	 1
    1268	    1478	    1480	 1
    1269	    1478	    1481	 1
    1270	    1478	    1482	 1
    1271	    1478	    1483	 1
    1272	    1478	    1484	 1
    1273	    1485	    1486	 1
    1274	    1485	    1487	 1
    1275	    1485	    1488	 1
    1276	    1485	    1489	 1
    1277	    1485	    1490	 1
    1278	    1485	    1491	 1
    1279	    1492	    1493	 1
    1280	    1492	    1494	 1
    1281	    1492	    1495	 1
    1282	    1492	    1496	 1
    1283	    1492	    1497	 1
    1284	    1492	    1498	 1
    1285	    1499	    1500	 1
    1286	    1499	    1501	 1
    1287	    1499	    1502	 1
    1288	    1499	    1503	 1
    1289	    1499	    1504	 1
    1290	    1499	    1505	 1
    1291	    1506	    1507	 1
    1292	    1506	    1508	 1
    1293	    1506	    1509	 1
    1294	    1506	    1510	 1
    1295	    1506	    1511	 1
    1296	    1506	    1512	 1
    1297	    1513	    1514	 1
    1298	    1513	    1515	 1
    1299	    1513	    1516	 1
    1300	    1513	    1517	 1
    1301	    1513	    1518	 1
    1302	    1513	    1519	 1
    1303	    1520	    1521	 1
    1304	    1520	    1522	 1
    1305	    1520	    1523	 1
    1306	    1520	    1524	 1
    1307	    1520	    1525	 1
    1308	    1520	    1526	 1
    1309	    1527	    1528	 1
    1310	    1527	    1529	 1
    1311	    1527	    1530	 1
    1312	    1527	    1531	 1
    1313	    1527	    1532	 1
    1314	    1527	    1533	 1
    1315	    1534	    1535	 1
    1316	    1534	    1536	 1
    1317	    1534	    1537	 1
    1318	    1534	    1538	 1
    1319	    1534	    1539	 1
    1320	    1534	    1540	 1
    1321	    1541	    1542	 1
    1322	    1541	    1543	 1
    1323	    1541	    1544	 1
    1324	    1541	    1545	 1
    1325	    1541	    1546	 1
    1326	    1541	    1547	 1
    1327	    1548	    1549	 1
    1328	    1548	    1550	 1
    1329	    1548	    1551	 1
    1330	    1548	    1552	 1
    1331	    1548	    1553	 1
    1332	    1548	    1554	 1
    1333	    1555	    1556	 1
    1334	    1555	    1557	 1
    1335	    1555	    1558	 1
    1336	    1555	    1559	 1
    1337	    1555	    1560	 1
    1338	    1555	    1561	 1
    1339	    1562	    1563	 1
    1340	    1562	    1564	 1
    1341	    1562	    1565	 1
    1342	    1562	    1566	 1
    1343	    1562	    1567	 1
    1344	    1562	    1568	 1
    1345	    1569	    1570	 1
    1346	    1569	    1571	 1
    1347	    1569	    1572	 1
    1348	    1569	    1573	 1
    1349	    1569	    1574	 1
    1350	    1569	    1575	 1
    1351	    1576	    1577	 1
    1352	    1576	    1578	 1
    1353	    1576	    1579	 1
    1354	    1576	    1580	 1
    1355	    1576	    1581	 1
    1356	    1576	    1582	 1
    1357	    1583	    1584	 1
    1358	    1583	    1585	 1
    1359	    1583	    1586	 1
    1360	    1583	    1587	 1
    1361	    1583	    1588	 1
    1362	    1583	    1589	 1
    1363	    1590	    1591	 1
    1364	    1590	    1592	 1
    1365	    1590	    1593	 1
    1366	    1590	    1594	 1
    1367	    1590	    1595	 1
    1368	    1590	    1596	 1
    1369	    1597	    1598	 1
    1370	    1597	    1599	 1
    1371	    1597	    1600	 1
    1372	    1597	    1601	 1
    1373	    1597	    1602	 1
    1374	    1597	    1603	 1
    1375	    1604	    1605	 1
    1376	    1604	    1606	 1
    1377	    1604	    1607	 1
    1378	    1604	    1608	 1
    1379	    1604	    1609	 1
    1380	    1604	    1610	 1
    1381	    1611	    1612	 1
    1382	    1611	    1613	 1
    1383	    1611	    1614	 1
    1384	    1611	    1615	 1
    1385	    1611	    1616	 1
    1386	    1611	    1617	 1
    1387	    1618	    1619	 1
    1388	    1618	    1620	 1
    1389	    1618	    1621	 1
    1390	    1618	    1622	 1
    1391	    1618	    1623	 1
    1392	    1618	    1624	 1
    1393	    1625	    1626	 1
    1394	    1625	    1627	 1
    1395	    1625	    1628	 1
    1396	    1625	    1629	 1
    1397	    1625	    1630	 1
    1398	    1625	    1631	 1
    1399	    1632	    1633	 1
    1400	    1632	    1634	 1
    1401	    1632	    1635	 1
    1402	    1632	    1636	 1
    1403	    1632	    1637	 1
    1404	    1632	    1638	 1
    1405	    1639	    1640	 1
    1406	    1639	    1641	 1
    1407	    1639	    1642	 1
    1408	    1639	    1643	 1
    1409	    1639	    1644	 1
    1410	    1639	    1645	 1
    1411	    1646	    1647	 1
    1412	    1646	    1648	 1
    1413	    1646	    1649	 1
    1414	    1646	    1650	 1
    1415	    1646	    1651	 1
    1416	    1646	    1652	 1
    1417	    1653	    1654	 1
    1418	    1653	    1655	 1
    1419	    1653	    1656	 1
    1420	    1653	    1657	 1
    1421	    1653	    1658	 1
    1422	    1653	    1659	 1
    1423	    1660	    1661	 1
    1424	    1660	    1662	 1
    1425	    1660	    1663	 1
    1426	    1660	    1664	 1
    1427	    1660	    1665	 1
    1428	    1660	    1666	 1
    1429	    1667	    1668	 1
    1430	    1667	    1669	 1
    1431	    1667	    1670	 1
    1432	    1667	    1671	 1
    1433	    1667	    1672	 1
    1434	    1667	    1673	 1
    1435	    1674	    1675	 1
    1436	    1674	    1676	 1
    1437	    1674	    1677	 1
    1438	    1674	    1678	 1
    1439	    1674	    1679	 1
    1440	    1674	    1680	 1
    1441	    1681	    1682	 1
    1442	    1681	    1683	 1
    1443	    1681	    1684	 1
    1444	    1681	    1685	 1
    1445	    1681	    1686	 1
    1446	    1681	    1687	 1
    1447	    1688	    1689	 1
    1448	    1688	    1690	 1
    1449	    1688	    1691	 1
    1450	    1688	    1692	 1
    1451	    1688	    1693	 1
    1452	    1688	    1694	 1
    1453	    1695	    1696	 1
    1454	    1695	    1697	 1
    1455	    1695	    1698	 1
    1456	    1695	    1699	 1
    1457	    1695	    1700	 1
    1458	    1695	    1701	 1
    1459	    1702	    1703	 1
    1460	    1702	    1704	 1
    1461	    1702	    1705	 1
    1462	    1702	    1706	 1
    1463	    1702	    1707	 1
    1464	    1702	    1708	 1
    1465	    1709	    1710	 1
    1466	    1709	    1711	 1
    1467	    1709	    1712	 1
    1468	    1709	    1713	 1
    1469	    1709	    1714	 1
    1470	    1709	    1715	 1
    1471	    1716	    1717	 1
    1472	    1716	    1718	 1
    1473	    1716	    1719	 1
    1474	    1716	    1720	 1
    1475	    1716	    1721	 1
    1476	    1716	    1722	 1
    1477	    1723	    1724	 1
    1478	    1723	    1725	 1
    1479	    1723	    1726	 1
    1480	    1723	    1727	 1
    1481	    1723	    1728	 1
    1482	    1723	    1729	 1
    1483	    1730	    1731	 1
    1484	    1730	    1732	 1
    1485	    1730	    1733	 1
    1486	    1730	    1734	 1
    1487	    1730	    1735	 1
    1488	    1730	    1736	 1
    1489	    1737	    1738	 1
    1490	    1737	    1739	 1
    1491	    1737	    1740	 1
    1492	    1737	    1741	 1
    1493	    1737	    1742	 1
    1494	    1737	    1743	 1
    1495	    1744	    1745	 1
    1496	    1744	    1746	 1
    1497	    1744	    1747	 1
    1498	    1744	    1748	 1
    1499	    1744	    1749	 1
    1500	    1744	    1750	 1
    1501	    1751	    1752	 1
    1502	    1751	    1753	 1
    1503	    1751	    1754	 1
    1504	    1751	    1755	 1
    1505	    1751	    1756	 1
    1506	    1751	    1757	 1
    1507	    1758	    1759	 1
    1508	    1758	    1760	 1
    1509	    1758	    1761	 1
    1510	    1758	    1762	 1
    1511	    1758	    1763	 1
    1512	    1758	    1764	 1
    1513	    1765	    1766	 1
    1514	    1765	    1767	 1
    1515	    1765	    1768	 1
    1516	    1765	    1769	 1
    1517	    1765	    1770	 1
    1518	    1765	    1771	 1
    1519	    1772	    1773	 1
    1520	    1772	    1774	 1
    1521	    1772	    1775	 1
    1522	    1772	    1776	 1
    1523	    1772	    1777	 1
    1524	    1772	    1778	 1
    1525	    1779	    1780	 1
    1526	    1779	    1781	 1
    1527	    1779	    1782	 1
    1528	    1779	    1783	 1
    1529	    1779	    1784	 1
    1530	    1779	    1785	 1
    1531	    1786	    1787	 1
    1532	    1786	    1788	 1
    1533	    1786	    1789	 1
    1534	    1786	    1790	 1
    1535	    1786	    1791	 1
    1536	    1786	    1792	 1
    1537	    1793	    1794	 1
    1538	    1793	    1795	 1
    1539	    1793	    1796	 1
    1540	    1793	    1797	 1
    1541	    1793	    1798	 1
    1542	    1793	    1799	 1
    1543	    1800	    1801	 1
    1544	    1800	    1802	 1
    1545	    1800	    1803	 1
    1546	    1800	    1804	 1
    1547	    1800	    1805	 1
    1548	    1800	    1806	 1
    1549	    1807	    1808	 1
    1550	    1807	    1809	 1
    1551	    1807	    1810	 1
    1552	    1807	    1811	 1
    1553	    1807	    1812	 1
    1554	    1807	    1813	 1
    1555	    1814	    1815	 1
    1556	    1814	    1816	 1
    1557	    1814	    1817	 1
    1558	    1814	    1818	 1
    1559	    1814	    1819	 1
    1560	    1814	    1820	 1
    1561	    1821	    1822	 1
    1562	    1821	    1823	 1
    1563	    1821	    1824	 1
    1564	    1821	    1825	 1
    1565	    1821	    1826	 1
    1566	    1821	    1827	 1
    1567	    1828	    1829	 1
    1568	    1828	    1830	 1
    1569	    1828	    1831	 1
    1570	    1828	    1832	 1
    1571	    1828	    1833	 1
    1572	    1828	    1834	 1
    1573	    1835	    1836	 1
    1574	    1835	    1837	 1
    1575	    1835	    1838	 1
    1576	    1835	    1839	 1
    1577	    1835	    1840	 1
    1578	    1835	    1841	 1
    1579	    1842	    1843	 1
    1580	    1842	    1844	 1
    1581	    1842	    1845	 1
    1582	    1842	    1846	 1
    1583	    1842	    1847	 1
    1584	    1842	    1848	 1
    1585	    1849	    1850	 1
    1586	    1849	    1851	 1
    1587	    1849	    1852	 1
    1588	    1849	    1853	 1
    1589	    1849	    1854	 1
    1590	    1849	    1855	 1
    1591	    1856	    1857	 1
    1592	    1856	    1858	 1
    1593	    1856	    1859	 1
    1594	    1856	    1860	 1
    1595	    1856	    1861	 1
    1596	    1856	    1862	 1
    1597	    1863	    1864	 1
    1598	    1863	    1865	 1
    1599	    1863	    1866	 1
    1600	    1863	    1867	 1
    1601	    1863	    1868	 1
    1602	    1863	    1869	 1
    1603	    1870	    1871	 1
    1604	    1870	    1872	 1
    1605	    1870	    1873	 1
    1606	    1870	    1874	 1
    1607	    1870	    1875	 1
    1608	    1870	    1876	 1
    1609	    1877	    1878	 1
    1610	    1877	    1879	 1
    1611	    1877	    1880	 1
    1612	    1877	    1881	 1
    1613	    1877	    1882	 1
    1614	    1877	    1883	 1
    1615	    1884	    1885	 1
    1616	    1884	    1886	 1
    1617	    1884	    1887	 1
    1618	    1884	    1888	 1
    1619	    1884	    1889	 1
    1620	    1884	    1890	 1
    1621	    1891	    1892	 1
    1622	    1891	    1893	 1
    1623	    1891	    1894	 1
    1624	    1891	    1895	 1
    1625	    1891	    1896	 1
    1626	    1891	    1897	 1
    1627	    1898	    1899	 1
    1628	    1898	    1900	 1
    1629	    1898	    1901	 1
    1630	    1898	    1902	 1
    1631	    1898	    1903	 1
    1632	    1898	    1904	 1
    1633	    1905	    1906	 1
    1634	    1905	    1907	 1
    1635	    1905	    1908	 1
    1636	    1905	    1909	 1
    1637	    1905	    1910	 1
    1638	    1905	    1911	 1
    1639	    1912	    1913	 1
    1640	    1912	    1914	 1
    1641	    1912	    1915	 1
    1642	    1912	    1916	 1
    1643	    1912	    1917	 1
    1644	    1912	    1918	 1
    1645	    1919	    1920	 1
    1646	    1919	    1921	 1
    1647	    1919	    1922	 1
    1648	    1919	    1923	 1
    1649	    1919	    1924	 1
    1650	    1919	    1925	 1
    1651	    1926	    1927	 1
    1652	    1926	    1928	 1
    1653	    1926	    1929	 1
    1654	    1926	    1930	 1
    1655	    1926	    1931	 1
    1656	    1926	    1932	 1
    1657	    1933	    1934	 1
    1658	    1933	    1935	 1
    1659	    1933	    1936	 1
    1660	    1933	    1937	 1
    1661	    1933	    1938	 1
    1662	    1933	    1939	 1
    1663	    1940	    1941	 1
    1664	    1940	    1942	 1
    1665	    1940	    1943	 1
    1666	    1940	    1944	 1
    1667	    1940	    1945	 1
    1668	    1940	    1946	 1
    1669	    1947	    1948	 1
    1670	    1947	    1949	 1
    1671	    1947	    1950	 1
    1672	    1947	    1951	 1
    1673	    1947	    1952	 1
    1674	    1947	    1953	 1
    1675	    1954	    1955	 1
    1676	    1954	    1956	 1
    1677	    1954	    1957	 1
    1678	    1954	    1958	 1
    1679	    1954	    1959	 1
    1680	    1954	    1960	 1
    1681	    1961	    1962	 1
    1682	    1961	    1963	 1
    1683	    1961	    1964	 1
    1684	    1961	    1965	 1
    1685	    1961	    1966	 1
    1686	    1961	    1967	 1
    1687	    1968	    1969	 1
    1688	    1968	    1970	 1
    1689	    1968	    1971	 1
    1690	    1968	    1972	 1
    1691	    1968	    1973	 1
    1692	    1968	    1974	 1
    1693	    1975	    1976	 1
    1694	    1975	    1977	 1
    1695	    1975	    1978	 1
    1696	    1975	    1979	 1
    1697	    1975	    1980	 1
    1698	    1975	    1981	 1
    1699	    1982	    1983	 1
    1700	    1982	    1984	 1
    1701	    1982	    1985	 1
    1702	    1982	    1986	 1
    1703	    1982	    1987	 1
    1704	    1982	    1988	 1
    1705	    1989	    1990	 1
    1706	    1989	    1991	 1
    1707	    1989	    1992	 1
    1708	    1989	    1993	 1
    1709	    1989	    1994	 1
    1710	    1989	    1995	 1
    1711	    1996	    1997	 1
    1712	    1996	    1998	 1
    1713	    1996	    1999	 1
    1714	    1996	    2000	 1
    1715	    1996	    2001	 1
    1716	    1996	    2002	 1
    1717	    2003	    2004	 1
    1718	    2003	    2005	 1
    1719	    2003	    2006	 1
    1720	    2003	    2007	 1
    1721	    2003	    2008	 1
    1722	    2003	    2009	 1
    1723	    2010	    2011	 1
    1724	    2010	    2012	 1
    1725	    2010	    2013	 1
    1726	    2010	    2014	 1
    1727	    2010	    2015	 1
    1728	    2010	    2016	 1
    1729	    2017	    2018	 1
    1730	    2017	    2019	 1
    1731	    2017	    2020	 1
    1732	    2017	    2021	 1
    1733	    2017	    2022	 1
    1734	    2017	    2023	 1
    1735	    2024	    2025	 1
    1736	    2024	    2026	 1
    1737	    2024	    2027	 1
    1738	    2024	    2028	 1
    1739	    2024	    2029	 1
    1740	    2024	    2030	 1
    1741	    2031	    2032	 1
    1742	    2031	    2033	 1
    1743	    2031	    2034	 1
    1744	    2031	    2035	 1
    1745	    2031	    2036	 1
    1746	    2031	    2037	 1
    1747	    2038	    2039	 1
    1748	    2038	    2040	 1
    1749	    2038	    2041	 1
    1750	    2038	    2042	 1
    1751	    2038	    2043	 1
    1752	    2038	    2044	 1
    1753	    2045	    2046	 1
    1754	    2045	    2047	 1
    1755	    2045	    2048	 1
    1756	    2045	    2049	 1
    1757	    2045	    2050	 1
    1758	    2045	    2051	 1
    1759	    2052	    2053	 1
    1760	    2052	    2054	 1
    1761	    2052	    2055	 1
    1762	    2052	    2056	 1
    1763	    2052	    2057	 1
    1764	    2052	    2058	 1
    1765	    2059	    2060	 1
    1766	    2059	    2061	 1
    1767	    2059	    2062	 1
    1768	    2059	    2063	 1
    1769	    2059	    2064	 1
    1770	    2059	    2065	 1
    1771	    2066	    2067	 1
    1772	    2066	    2068	 1
    1773	    2066	    2069	 1
    1774	    2066	    2070	 1
    1775	    2066	    2071	 1
    1776	    2066	    2072	 1
    1777	    2073	    2074	 1
    1778	    2073	    2075	 1
    1779	    2073	    2076	 1
    1780	    2073	    2077	 1
    1781	    2073	    2078	 1
    1782	    2073	    2079	 1
    1783	    2080	    2081	 1
    1784	    2080	    2082	 1
    1785	    2080	    2083	 1
    1786	    2080	    2084	 1
    1787	    2080	    2085	 1
    1788	    2080	    2086	 1
    1789	    2087	    2088	 1
    1790	    2087	    2089	 1
    1791	    2087	    2090	 1
    1792	    2087	    2091	 1
    1793	    2087	    2092	 1
    1794	    2087	    2093	 1
    1795	    2094	    2095	 1
    1796	    2094	    2096	 1
    1797	    2094	    2097	 1
    1798	    2094	    2098	 1
    1799	    2094	    2099	 1
    1800	    2094	    2100	 1
    1801	    2101	    2102	 1
    1802	    2101	    2103	 1
    1803	    2101	    2104	 1
    1804	    2101	    2105	 1
    1805	    2101	    2106	 1
    1806	    2101	    2107	 1
    1807	    2108	    2109	 1
    1808	    2108	    2110	 1
    1809	    2108	    2111	 1
    1810	    2108	    2112	 1
    1811	    2108	    2113	 1
    1812	    2108	    2114	 1
    1813	    2115	    2116	 1
    1814	    2115	    2117	 1
    1815	    2115	    2118	 1
    1816	    2115	    2119	 1
    1817	    2115	    2120	 1
    1818	    2115	    2121	 1
    1819	    2122	    2123	 1
    1820	    2122	    2124	 1
    1821	    2122	    2125	 1
    1822	    2122	    2126	 1
    1823	    2122	    2127	 1
    1824	    2122	    2128	 1
    1825	    2129	    2130	 1
    1826	    2129	    2131	 1
    1827	    2129	    2132	 1
    1828	    2129	    2133	 1
    1829	    2129	    2134	 1
    1830	    2129	    2135	 1
    1831	    2136	    2137	 1
    1832	    2136	    2138	 1
    1833	    2136	    2139	 1
    1834	    2136	    2140	 1
    1835	    2136	    2141	 1
    1836	    2136	    2142	 1
    1837	    2143	    2144	 1
    1838	    2143	    2145	 1
    1839	    2143	    2146	 1
    1840	    2143	    2147	 1
    1841	    2143	    2148	 1
    1842	    2143	    2149	 1
    1843	    2150	    2151	 1
    1844	    2150	    2152	 1
    1845	    2150	    2153	 1
    1846	    2150	    2154	 1
    1847	    2150	    2155	 1
    1848	    2150	    2156	 1
    1849	    2157	    2158	 1
    1850	    2157	    2159	 1
    1851	    2157	    2160	 1
    1852	    2157	    2161	 1
    1853	    2157	    2162	 1
    1854	    2157	    2163	 1
    1855	    2164	    2165	 1
    1856	    2164	    2166	 1
    1857	    2164	    2167	 1
    1858	    2164	    2168	 1
    1859	    2164	    2169	 1
    1860	    2164	    2170	 1
    1861	    2171	    2172	 1
    1862	    2171	    2173	 1
    1863	    2171	    2174	 1
    1864	    2171	    2175	 1
    1865	    2171	    2176	 1
    1866	    2171	    2177	 1
    1867	    2178	    2179	 1
    1868	    2178	    2180	 1
    1869	    2178	    2181	 1
    1870	    2178	    2182	 1
    1871	    2178	    2183	 1
    1872	    2178	    2184	 1
    1873	    2185	    2186	 1
    1874	    2185	    2187	 1
    1875	    2185	    2188	 1
    1876	    2185	    2189	 1
    1877	    2185	    2190	 1
    1878	    2185	    2191	 1
    1879	    2192	    2193	 1
    1880	    2192	    2194	 1
    1881	    2192	    2195	 1
    1882	    2192	    2196	 1
    1883	    2192	    2197	 1
    1884	    2192	    2198	 1
    1885	    2199	    2200	 1
    1886	    2199	    2201	 1
    1887	    2199	    2202	 1
    1888	    2199	    2203	 1
    1889	    2199	    2204	 1
    1890	    2199	    2205	 1
    1891	    2206	    2207	 1
    1892	    2206	    2208	 1
    1893	    2206	    2209	 1
    1894	    2206	    2210	 1
    1895	    2206	    2211	 1
    1896	    2206	    2212	 1
    1897	    2213	    2214	 1
    1898	    2213	    2215	 1
    1899	    2213	    2216	 1
    1900	    2213	    2217	 1
    1901	    2213	    2218	 1
    1902	    2213	    2219	 1
    1903	    2220	    2221	 1
    1904	    2220	    2222	 1
    1905	    2220	    2223	 1
    1906	    2220	    2224	 1
    1907	    2220	    2225	 1
    1908	    2220	    2226	 1
    1909	    2227	    2228	 1
    1910	    2227	    2229	 1
    1911	    2227	    2230	 1
    1912	    2227	    2231	 1
    1913	    2227	    2232	 1
    1914	    2227	    2233	 1
    1915	    2234	    2235	 1
    1916	    2234	    2236	 1
    1917	    2234	    2237	 1
    1918	    2234	    2238	 1
    1919	    2234	    2239	 1
    1920	    2234	    2240	 1
    1921	    2241	    2242	 1
    1922	    2241	    2243	 1
    1923	    2241	    2244	 1
    1924	    2241	    2245	 1
    1925	    2241	    2246	 1
    1926	    2241	    2247	 1
    1927	    2248	    2249	 1
    1928	    2248	    2250	 1
    1929	    2248	    2251	 1
    1930	    2248	    2252	 1
    1931	    2248	    2253	 1
    1932	    2248	    2254	 1
    1933	    2255	    2256	 1
    1934	    2255	    2257	 1
    1935	    2255	    2258	 1
    1936	    2255	    2259	 1
    1937	    2255	    2260	 1
    1938	    2255	    2261	 1
    1939	    2262	    2263	 1
    1940	    2262	    2264	 1
    1941	    2262	    2265	 1
    1942	    2262	    2266	 1
    1943	    2262	    2267	 1
    1944	    2262	    2268	 1
    1945	    2269	    2270	 1
    1946	    2269	    2271	 1
    1947	    2269	    2272	 1
    1948	    2269	    2273	 1
    1949	    2269	    2274	 1
    1950	    2269	    2275	 1
    1951	    2276	    2277	 1
    1952	    2276	    2278	 1
    1953	    2276	    2279	 1
    1954	    2276	    2280	 1
    1955	    2276	    2281	 1
    1956	    2276	    2282	 1
    1957	    2283	    2284	 1
    1958	    2283	    2285	 1
    1959	    2283	    2286	 1
    1960	    2283	    2287	 1
    1961	    2283	    2288	 1
    1962	    2283	    2289	 1
    1963	    2290	    2291	 1
    1964	    2290	    2292	 1
    1965	    2290	    2293	 1
    1966	    2290	    2294	 1
    1967	    2290	    2295	 1
    1968	    2290	    2296	 1
    1969	    2297	    2298	 1
    1970	    2297	    2299	 1
    1971	    2297	    2300	 1
    1972	    2297	    2301	 1
    1973	    2297	    2302	 1
    1974	    2297	    2303	 1
    1975	    2304	    2305	 1
    1976	    2304	    2306	 1
    1977	    2304	    2307	 1
    1978	    2304	    2308	 1
    1979	    2304	    2309	 1
    1980	    2304	    2310	 1
    1981	    2311	    2312	 1
    1982	    2311	    2313	 1
    1983	    2311	    2314	 1
    1984	    2311	    2315	 1
    1985	    2311	    2316	 1
    1986	    2311	    2317	 1
    1987	    2318	    2319	 1
    1988	    2318	    2320	 1
    1989	    2318	    2321	 1
    1990	    2318	    2322	 1
    1991	    2318	    2323	 1
    1992	    2318	    2324	 1
    1993	    2325	    2326	 1
    1994	    2325	    2327	 1
    1995	    2325	    2328	 1
    1996	    2325	    2329	 1
    1997	    2325	    2330	 1
    1998	    2325	    2331	 1
    1999	    2332	    2333	 1
    2000	    2332	    2334	 1
    2001	    2332	    2335	 1
    2002	    2332	    2336	 1
    2003	    2332	    2337	 1
    2004	    2332	    2338	 1
    2005	    2339	    2340	 1
    2006	    2339	    2341	 1
    2007	    2339	    2342	 1
    2008	    2339	    2343	 1
    2009	    2339	    2344	 1
    2010	    2339	    2345	 1
    2011	    2346	    2347	 1
    2012	    2346	    2348	 1
    2013	    2346	    2349	 1
    2014	    2346	    2350	 1
    2015	    2346	    2351	 1
    2016	    2346	    2352	 1
    2017	    2353	    2354	 1
    2018	    2353	    2355	 1
    2019	    2353	    2356	 1
    2020	    2353	    2357	 1
    2021	    2353	    2358	 1
    2022	    2353	    2359	 1
    2023	    2360	    2361	 1
    2024	    2360	    2362	 1
    2025	    2360	    2363	 1
    2026	    2360	    2364	 1
    2027	    2360	    2365	 1
    2028	    2360	    2366	 1
    2029	    2367	    2368	 1
    2030	    2367	    2369	 1
    2031	    2367	    2370	 1
    2032	    2367	    2371	 1
    2033	    2367	    2372	 1
    2034	    2367	    2373	 1
    2035	    2374	    2375	 1
    2036	    2374	    2376	 1
    2037	    2374	    2377	 1
    2038	    2374	    2378	 1
    2039	    2374	    2379	 1
    2040	    2374	    2380	 1
    2041	    2381	    2382	 1
    2042	    2381	    2383	 1
    2043	    2381	    2384	 1
    2044	    2381	    2385	 1
    2045	    2381	    2386	 1
    2046	    2381	    2387	 1
    2047	    2388	    2389	 1
    2048	    2388	    2390	 1
    2049	    2388	    2391	 1
    2050	    2388	    2392	 1
    2051	    2388	    2393	 1
    2052	    2388	    2394	 1
    2053	    2395	    2396	 1
    2054	    2395	    2397	 1
    2055	    2395	    2398	 1
    2056	    2395	    2399	 1
    2057	    2395	    2400	 1
    2058	    2395	    2401	 1
    2059	    2402	    2403	 1
    2060	    2402	    2404	 1
    2061	    2402	    2405	 1
    2062	    2402	    2406	 1
    2063	    2402	    2407	 1
    2064	    2402	    2408	 1
    2065	    2409	    2410	 1
    2066	    2409	    2411	 1
    2067	    2409	    2412	 1
    2068	    2409	    2413	 1
    2069	    2409	    2414	 1
    2070	    2409	    2415	 1
    2071	    2416	    2417	 1
    2072	    2416	    2418	 1
    2073	    2416	    2419	 1
    2074	    2416	    2420	 1
    2075	    2416	    2421	 1
    2076	    2416	    2422	 1
    2077	    2423	    2424	 1
    2078	    2423	    2425	 1
    2079	    2423	    2426	 1
    2080	    2423	    2427	 1
    2081	    2423	    2428	 1
    2082	    2423	    2429	 1
    2083	    2430	    2431	 1
    2084	    2430	    2432	 1
    2085	    2430	    2433	 1
    2086	    2430	    2434	 1
    2087	    2430	    2435	 1
    2088	    2430	    2436	 1
    2089	    2437	    2438	 1
    2090	    2437	    2439	 1
    2091	    2437	    2440	 1
    2092	    2437	    2441	 1
    2093	    2437	    2442	 1
    2094	    2437	    2443	 1
    2095	    2444	    2445	 1
    2096	    2444	    2446	 1
    2097	    2444	    2447	 1
    2098	    2444	    2448	 1
    2099	    2444	    2449	 1
    2100	    2444	    2450	 1
    2101	    2451	    2452	 1
    2102	    2451	    2453	 1
    2103	    2451	    2454	 1
    2104	    2451	    2455	 1
    2105	    2451	    2456	 1
    2106	    2451	    2457	 1
    2107	    2458	    2459	 1
    2108	    2458	    2460	 1
    2109	    2458	    2461	 1
    2110	    2458	    2462	 1
    2111	    2458	    2463	 1
    2112	    2458	    2464	 1
    2113	    2465	    2466	 1
    2114	    2465	    2467	 1
    2115	    2465	    2468	 1
    2116	    2465	    2469	 1
    2117	    2465	    2470	 1
    2118	    2465	    2471	 1
    2119	    2472	    2473	 1
    2120	    2472	    2474	 1
    2121	    2472	    2475	 1
    2122	    2472	    2476	 1
    2123	    2472	    2477	 1
    2124	    2472	    2478	 1
    2125	    2479	    2480	 1
    2126	    2479	    2481	 1
    2127	    2479	    2482	 1
    2128	    2479	    2483	 1
    2129	    2479	    2484	 1
    2130	    2479	    2485	 1
    2131	    2486	    2487	 1
    2132	    2486	    2488	 1
    2133	    2486	    2489	 1
    2134	    2486	    2490	 1
    2135	    2486	    2491	 1
    2136	    2486	    2492	 1
    2137	    2493	    2494	 1
    2138	    2493	    2495	 1
    2139	    2493	    2496	 1
    2140	    2493	    2497	 1
    2141	    2493	    2498	 1
    2142	    2493	    2499	 1
    2143	    2500	    2501	 1
    2144	    2500	    2502	 1
    2145	    2500	    2503	 1
    2146	    2500	    2504	 1
    2147	    2500	    2505	 1
    2148	    2500	    2506	 1
    2149	    2507	    2508	 1
    2150	    2507	    2509	 1
    2151	    2507	    2510	 1
    2152	    2507	    2511	 1
    2153	    2507	    2512	 1
    2154	    2507	    2513	 1
    2155	    2514	    2515	 1
    2156	    2514	    2516	 1
    2157	    2514	    2517	 1
    2158	    2514	    2518	 1
    2159	    2514	    2519	 1
    2160	    2514	    2520	 1
    2161	    2521	    2522	 1
    2162	    2521	    2523	 1
    2163	    2521	    2524	 1
    2164	    2521	    2525	 1
    2165	    2521	    2526	 1
    2166	    2521	    2527	 1
    2167	    2528	    2529	 1
    2168	    2528	    2530	 1
    2169	    2528	    2531	 1
    2170	    2528	    2532	 1
    2171	    2528	    2533	 1
    2172	    2528	    2534	 1
    2173	    2535	    2536	 1
    2174	    2535	    2537	 1
    2175	    2535	    2538	 1
    2176	    2535	    2539	 1
    2177	    2535	    2540	 1
    2178	    2535	    2541	 1
    2179	    2542	    2543	 1
    2180	    2542	    2544	 1
    2181	    2542	    2545	 1
    2182	    2542	    2546	 1
    2183	    2542	    2547	 1
    2184	    2542	    2548	 1
    2185	    2549	    2550	 1
    2186	    2549	    2551	 1
    2187	    2549	    2552	 1
    2188	    2549	    2553	 1
    2189	    2549	    2554	 1
    2190	    2549	    2555	 1
    2191	    2556	    2557	 1
    2192	    2556	    2558	 1
    2193	    2556	    2559	 1
    2194	    2556	    2560	 1
    2195	    2556	    2561	 1
    2196	    2556	    2562	 1
    2197	    2563	    2564	 1
    2198	    2563	    2565	 1
    2199	    2563	    2566	 1
    2200	    2563	    2567	 1
    2201	    2563	    2568	 1
    2202	    2563	    2569	 1
    2203	    2570	    2571	 1
    2204	    2570	    2572	 1
    2205	    2570	    2573	 1
    2206	    2570	    2574	 1
    2207	    2570	    2575	 1
    2208	    2570	    2576	 1
    2209	    2577	    2578	 1
    2210	    2577	    2579	 1
    2211	    2577	    2580	 1
    2212	    2577	    2581	 1
    2213	    2577	    2582	 1
    2214	    2577	    2583	 1
    2215	    2584	    2585	 1
    2216	    2584	    2586	 1
    2217	    2584	    2587	 1
    2218	    2584	    2588	 1
    2219	    2584	    2589	 1
    2220	    2584	    2590	 1
    2221	    2591	    2592	 1
    2222	    2591	    2593	 1
    2223	    2591	    2594	 1
    2224	    2591	    2595	 1
    2225	    2591	    2596	 1
    2226	    2591	    2597	 1
    2227	    2598	    2599	 1
    2228	    2598	    2600	 1
    2229	    2598	    2601	 1
    2230	    2598	    2602	 1
    2231	    2598	    2603	 1
    2232	    2598	    2604	 1
    2233	    2605	    2606	 1
    2234	    2605	    2607	 1
    2235	    2605	    2608	 1
    2236	    2605	    2609	 1
    2237	    2605	    2610	 1
    2238	    2605	    2611	 1
    2239	    2612	    2613	 1
    2240	    2612	    2614	 1
    2241	    2612	    2615	 1
    2242	    2612	    2616	 1
    2243	    2612	    2617	 1
    2244	    2612	    2618	 1
    2245	    2619	    2620	 1
    2246	    2619	    2621	 1
    2247	    2619	    2622	 1
    2248	    2619	    2623	 1
    2249	    2619	    2624	 1
    2250	    2619	    2625	 1
    2251	    2626	    2627	 1
    2252	    2626	    2628	 1
    2253	    2626	    2629	 1
    2254	    2626	    2630	 1
    2255	    2626	    2631	 1
    2256	    2626	    2632	 1
    2257	    2633	    2634	 1
    2258	    2633	    2635	 1
    2259	    2633	    2636	 1
    2260	    2633	    2637	 1
    2261	    2633	    2638	 1
    2262	    2633	    2639	 1
    2263	    2640	    2641	 1
    2264	    2640	    2642	 1
    2265	    2640	    2643	 1
    2266	    2640	    2644	 1
    2267	    2640	    2645	 1
    2268	    2640	    2646	 1
    2269	    2647	    2648	 1
    2270	    2647	    2649	 1
    2271	    2647	    2650	 1
    2272	    2647	    2651	 1
    2273	    2647	    2652	 1
    2274	    2647	    2653	 1
    2275	    2654	    2655	 1
    2276	    2654	    2656	 1
    2277	    2654	    2657	 1
    2278	    2654	    2658	 1
    2279	    2654	    2659	 1
    2280	    2654	    2660	 1
    2281	    2661	    2662	 1
    2282	    2661	    2663	 1
    2283	    2661	    2664	 1
    2284	    2661	    2665	 1
    2285	    2661	    2666	 1
    2286	    2661	    2667	 1
    2287	    2668	    2669	 1
    2288	    2668	    2670	 1
    2289	    2668	    2671	 1
    2290	    2668	    2672	 1
    2291	    2668	    2673	 1
    2292	    2668	    2674	 1
    2293	    2675	    2676	 1
    2294	    2675	    2677	 1
    2295	    2675	    2678	 1
    2296	    2675	    2679	 1
    2297	    2675	    2680	 1
    2298	    2675	    2681	 1
    2299	    2682	    2683	 1
    2300	    2682	    2684	 1
    2301	    2682	    2685	 1
    2302	    2682	    2686	 1
    2303	    2682	    2687	 1
    2304	    2682	    2688	 1
    2305	    2689	    2690	 1
    2306	    2689	    2691	 1
    2307	    2689	    2692	 1
    2308	    2689	    2693	 1
    2309	    2689	    2694	 1
    2310	    2689	    2695	 1
    2311	    2696	    2697	 1
    2312	    2696	    2698	 1
    2313	    2696	    2699	 1
    2314	    2696	    2700	 1
    2315	    2696	    2701	 1
    2316	    2696	    2702	 1
    2317	    2703	    2704	 1
    2318	    2703	    2705	 1
    2319	    2703	    2706	 1
    2320	    2703	    2707	 1
    2321	    2703	    2708	 1
    2322	    2703	    2709	 1
    2323	    2710	    2711	 1
    2324	    2710	    2712	 1
    2325	    2710	    2713	 1
    2326	    2710	    2714	 1
    2327	    2710	    2715	 1
    2328	    2710	    2716	 1
    2329	    2717	    2718	 1
    2330	    2717	    2719	 1
    2331	    2717	    2720	 1
    2332	    2717	    2721	 1
    2333	    2717	    2722	 1
    2334	    2717	    2723	 1
    2335	    2724	    2725	 1
    2336	    2724	    2726	 1
    2337	    2724	    2727	 1
    2338	    2724	    2728	 1
    2339	    2724	    2729	 1
    2340	    2724	    2730	 1
    2341	    2731	    2732	 1
    2342	    2731	    2733	 1
    2343	    2731	    2734	 1
    2344	    2731	    2735	 1
    2345	    2731	    2736	 1
    2346	    2731	    2737	 1
    2347	    2738	    2739	 1
    2348	    2738	    2740	 1
    2349	    2738	    2741	 1
    2350	    2738	    2742	 1
    2351	    2738	    2743	 1
    2352	    2738	    2744	 1
    2353	    2745	    2746	 1
    2354	    2745	    2747	 1
    2355	    2745	    2748	 1
    2356	    2745	    2749	 1
    2357	    2745	    2750	 1
    2358	    2745	    2751	 1
    2359	    2752	    2753	 1
    2360	    2752	    2754	 1
    2361	    2752	    2755	 1
    2362	    2752	    2756	 1
    2363	    2752	    2757	 1
    2364	    2752	    2758	 1
    2365	    2759	    2760	 1
    2366	    2759	    2761	 1
    2367	    2759	    2762	 1
    2368	    2759	    2763	 1
    2369	    2759	    2764	 1
    2370	    2759	    2765	 1
    2371	    2766	    2767	 1
    2372	    2766	    2768	 1
    2373	    2766	    2769	 1
    2374	    2766	    2770	 1
    2375	    2766	    2771	 1
    2376	    2766	    2772	 1
    2377	    2773	    2774	 1
    2378	    2773	    2775	 1
    2379	    2773	    2776	 1
    2380	    2773	    2777	 1
    2381	    2773	    2778	 1
    2382	    2773	    2779	 1
    2383	    2780	    2781	 1
    2384	    2780	    2782	 1
    2385	    2780	    2783	 1
    2386	    2780	    2784	 1
    2387	    2780	    2785	 1
    2388	    2780	    2786	 1
    2389	    2787	    2788	 1
    2390	    2787	    2789	 1
    2391	    2787	    2790	 1
    2392	    2787	    2791	 1
    2393	    2787	    2792	 1
    2394	    2787	    2793	 1
    2395	    2794	    2795	 1
    2396	    2794	    2796	 1
    2397	    2794	    2797	 1
    2398	    2794	    2798	 1
    2399	    2794	    2799	 1
    2400	    2794	    2800	 1
    2401	     747	    1640	 1
    2402	     661	    1103	 1
    2403	    2349	    2733	 1
    2404	    1131	    1977	 1
    2405	     417	     891	 1
    2406	    1915	    2063	 1
    2407	     667	    1178	 1
    2408	     783	    1742	 1
    2409	      18	    2554	 1
    2410	     625	     826	 1
    2411	     434	    1603	 1
@<TRIPOS>FF_PBC
    v1.0	       1	     -20	     -20	     -20	      20	      20	      20
24000
@<TRIPOS>MOLECULE
Nanorod
2800	2412
SMALL
NO_CHARGES
@<TRIPOS>ATOM
     1	1	-19.4553	-6.12137	 19.2775	N.3
     2	2	-20.1719	-5.73211	  18.532	C.1
     3	2	-20.5586	-6.17921	 19.2628	C.1
     4	2	-18.8519	-5.23255	  19.536	C.1
     5	2	-19.2387	-5.67965	 20.2669	C.1
     6	2	-18.7619	-6.72881	 18.6683	C.1
     7	2	-19.1487	-7.17591	 19.3992	C.1
     8	1	 6.29174	 13.3044	 10.6244	N.3
     9	2	 6.78639	 13.3072	  9.6364	C.1
    10	2	 6.25847	 14.0626	 9.82138	C.1
    11	2	 7.12846	 13.1327	 11.3253	C.1
    12	2	 6.60054	 13.8881	 11.5103	C.1
    13	2	 5.75224	 12.3402	 10.6341	C.1
    14	2	 5.22432	 13.0957	 10.8191	C.1
    15	1	 8.79976	 6.71737	 -19.733	N.3
    16	2	  7.9219	 7.35182	-19.5145	C.1
    17	2	 8.75609	 7.75556	-19.3573	C.1
    18	2	 8.62369	 6.39241	-20.7743	C.1
    19	2	 9.45788	 6.79614	 -20.617	C.1
    20	2	  8.6024	 5.80227	 -19.146	C.1
    21	2	 9.43659	 6.20601	-18.9888	C.1
    22	1	 10.5015	-18.9379	-13.0653	N.3
    23	2	 10.9185	-19.6335	-13.8157	C.1
    24	2	 11.3322	-19.6605	 -12.972	C.1
    25	2	 9.42338	  -19.18	-13.0682	C.1
    26	2	   9.837	 -19.207	-12.2245	C.1
    27	2	  10.542	-17.9597	-13.5775	C.1
    28	2	 10.9556	-17.9867	-12.7339	C.1
    29	1	-10.6677	 -15.358	 -12.749	N.3
    30	2	-11.3203	-15.1767	 -11.876	C.1
    31	2	-10.5056	-14.7077	-11.8705	C.1
    32	2	-11.3286	-15.1419	-13.6077	C.1
    33	2	-10.5139	 -14.673	-13.6021	C.1
    34	2	-10.5761	-16.4589	-12.7716	C.1
    35	2	-9.76148	  -15.99	 -12.766	C.1
    36	1	 3.88908	-15.6681	   5.722	N.3
    37	2	 3.57269	-16.7136	 5.55597	C.1
    38	2	 3.24229	-16.3158	 6.34091	C.1
    39	2	 3.59983	-15.1643	 4.78208	C.1
    40	2	 3.26943	-14.7665	 5.56702	C.1
    41	2	 4.99032	 -15.723	 5.65055	C.1
    42	2	 4.65992	-15.3251	 6.43549	C.1
    43	1	  6.7194	-3.20235	-13.7873	N.3
    44	2	 7.16851	-2.19687	-13.8779	C.1
    45	2	 7.06349	-2.51004	-12.9978	C.1
    46	2	 7.36267	-3.82558	-14.4343	C.1
    47	2	 7.25766	-4.13874	-13.5542	C.1
    48	2	 5.78453	-3.11486	-14.3697	C.1
    49	2	 5.67952	-3.42802	-13.4896	C.1
    50	1	-7.11607	-1.57259	 15.7463	N.3
    51	2	-6.13128	-1.41272	 16.2213	C.1
    52	2	 -6.8163	-0.842221	 16.5194	C.1
    53	2	 -7.3004	-2.65059	 15.9037	C.1
    54	2	-7.98542	-2.08009	 16.2019	C.1
    55	2	-6.88899	 -1.5102	 14.6668	C.1
    56	2	  -7.574	-0.939693	 14.9649	C.1
    57	1	-10.9787	 10.5155	 -7.6363	N.3
    58	2	-9.90943	 10.7316	-7.46083	C.1
    59	2	-10.1188	 10.4243	-8.32417	C.1
    60	2	-11.4785	 11.4546	-7.33752	C.1
    61	2	-11.6879	 11.1474	-8.20086	C.1
    62	2	-11.2342	 9.82128	-6.81556	C.1
    63	2	-11.4436	 9.51405	-7.67889	C.1
    64	1	 6.99007	-17.4232	 3.90238	N.3
    65	2	 6.56265	-18.4242	 4.09271	C.1
    66	2	  7.3961	 -18.262	 4.49602	C.1
    67	2	 6.17833	-16.7394	 4.20947	C.1
    68	2	 7.01178	-16.5772	 4.61279	C.1
    69	2	 6.97907	-17.3493	 2.79999	C.1
    70	2	 7.81252	-17.1871	  3.2033	C.1
    71	1	 1.45915	-18.5429	-16.8371	N.3
    72	2	0.551574	-19.1731	-16.8308	C.1
    73	2	 1.17656	-19.3788	-17.5021	C.1
    74	2	 1.83517	-18.6312	-15.8019	C.1
    75	2	 2.46015	-18.8369	-16.4732	C.1
    76	2	 1.05323	-17.5158	-16.8716	C.1
    77	2	 1.67822	-17.7215	-17.5429	C.1
    78	1	-12.7207	 2.80149	 -1.8674	N.3
    79	2	-12.6129	 3.62049	-1.13357	C.1
    80	2	-11.8985	 3.01009	-1.15929	C.1
    81	2	-12.9171	 3.33531	-2.81466	C.1
    82	2	-12.2027	 2.72491	-2.84039	C.1
    83	2	-13.7036	 2.36426	-1.61539	C.1
    84	2	-12.9892	 1.75386	-1.64111	C.1
    85	1	 14.1522	 13.8473	-11.0279	N.3
    86	2	  13.653	 14.2821	-11.9126	C.1
    87	2	 14.3882	 13.7274	-12.1007	C.1
    88	2	 13.3229	 13.3602	 -10.484	C.1
    89	2	 14.0582	 12.8055	 -10.672	C.1
    90	2	 14.3777	 14.7317	-10.4051	C.1
    91	2	  15.113	  14.177	-10.5932	C.1
    92	1	0.932069	 14.8546	 9.34239	N.3
    93	2	 0.20946	 14.0691	 9.05652	C.1
    94	2	-0.167147	 14.9096	 9.24442	C.1
    95	2	 1.66121	 14.8412	 8.51231	C.1
    96	2	 1.28461	 15.6817	 8.70021	C.1
    97	2	 1.49044	 14.3927	 10.1765	C.1
    98	2	 1.11384	 15.2332	 10.3644	C.1
    99	1	 19.8545	 16.5149	-9.57996	N.3
   100	2	 18.7669	 16.5855	-9.76143	C.1
   101	2	 19.0755	 17.0408	-8.99911	C.1
   102	2	 20.2927	 16.8504	-10.5372	C.1
   103	2	 20.6012	 17.3057	-9.77491	C.1
   104	2	 20.0412	 15.4259	-9.58472	C.1
   105	2	 20.3498	 15.8811	 -8.8224	C.1
   106	1	-1.03619	 6.71095	 17.1661	N.3
   107	2	-2.00077	 7.24837	 17.2069	C.1
   108	2	-1.28436	 7.73943	 16.8474	C.1
   109	2	-1.28766	 5.78144	 16.6242	C.1
   110	2	-0.571259	  6.2725	 16.2647	C.1
   111	2	-0.894745	 6.36644	 18.2063	C.1
   112	2	-0.178342	  6.8575	 17.8468	C.1
   113	1	-19.3759	 2.53435	-13.7408	N.3
   114	2	-19.7332	 2.72168	-14.7694	C.1
   115	2	-20.3945	 2.76338	-14.1027	C.1
   116	2	-18.5467	 3.25556	-13.6261	C.1
   117	2	 -19.208	 3.29726	-12.9593	C.1
   118	2	-18.8559	 1.56325	-13.8269	C.1
   119	2	-19.5172	 1.60495	-13.1602	C.1
   120	1	 7.91142	 15.0775	 9.65974	N.3
   121	2	 7.43414	 14.4689	 10.4489	C.1
   122	2	 7.13207	 15.3572	 10.3914	C.1
   123	2	 7.76305	 14.4706	 8.74837	C.1
   124	2	 7.46098	 15.3589	 8.69085	C.1
   125	2	 8.99016	 14.9604	 9.86824	C.1
   126	2	 8.68809	 15.8487	 9.81072	C.1
   127	1	-16.8155	-0.339474	 3.59064	N.3
   128	2	-17.6554	-0.860661	 4.08453	C.1
   129	2	-16.8153	-0.984963	 4.48744	C.1
   130	2	-17.1626	0.708352	 3.54109	C.1
   131	2	-16.3225	 0.58405	 3.94399	C.1
   132	2	-16.8888	-0.67966	 2.54195	C.1
   133	2	-16.0487	-0.803963	 2.94485	C.1
   134	1	 10.0125	-1.89742	 11.4568	N.3
   135	2	 9.63909	-1.09146	  12.114	C.1
   136	2	 9.38732	-1.96146	 12.3656	C.1
   137	2	 11.1016	-1.71377	 11.4257	C.1
   138	2	 10.8499	-2.58376	 11.6774	C.1
   139	2	 9.67447	-1.58205	 10.4533	C.1
   140	2	  9.4227	-2.45204	 10.7049	C.1
   141	1	 7.37418	-11.6091	 11.5675	N.3
   142	2	 6.52588	-11.6263	 12.2753	C.1
   143	2	 6.42579	 -12.174	 11.5179	C.1
   144	2	 8.24248	 -11.847	 12.2081	C.1
   145	2	  8.1424	-12.3947	 11.4506	C.1
   146	2	  7.5043	-10.5326	 11.3553	C.1
   147	2	 7.40422	-11.0802	 10.5979	C.1
   148	1	 14.8422	-19.7444	-1.58919	N.3
   149	2	 14.8759	-20.6004	-2.28702	C.1
   150	2	 15.1764	-20.7831	-1.41531	C.1
   151	2	  13.795	-19.3996	-1.66267	C.1
   152	2	 14.0956	-19.5823	-0.790961	C.1
   153	2	 15.4048	 -18.959	-2.12543	C.1
   154	2	 15.7054	-19.1417	-1.25372	C.1
   155	1	-14.2795	 19.4106	-17.1061	N.3
   156	2	-14.1173	 19.3698	-16.0138	C.1
   157	2	 -14.482	 20.1748	-16.3341	C.1
   158	2	 -14.885	 18.5082	-17.3055	C.1
   159	2	-15.2497	 19.3132	-17.6257	C.1
   160	2	 -13.289	 19.1464	-17.5185	C.1
   161	2	-13.6537	 19.9514	-17.8388	C.1
   162	1	 18.8273	-17.0483	 12.7426	N.3
   163	2	 18.2236	 -17.958	 12.9123	C.1
   164	2	 18.9611	-18.0686	 12.3401	C.1
   165	2	 19.0729	-16.7135	 13.7665	C.1
   166	2	 19.8104	 -16.824	 13.1943	C.1
   167	2	 18.0791	-16.3076	 12.4073	C.1
   168	2	 18.8167	-16.4181	 11.8351	C.1
   169	1	 11.9148	-10.4761	 16.5195	N.3
   170	2	 11.7369	-11.5616	 16.6242	C.1
   171	2	 12.4004	-11.3233	 16.0024	C.1
   172	2	  12.105	  -10.15	 17.5579	C.1
   173	2	 12.7685	-9.91177	 16.9362	C.1
   174	2	 10.9074	-10.0741	  16.309	C.1
   175	2	 11.5709	-9.83586	 15.6873	C.1
   176	1	0.195773	 -10.221	-16.3984	N.3
   177	2	 1.19885	-10.5721	 -16.096	C.1
   178	2	0.811779	-11.0385	-16.8145	C.1
   179	2	0.346888	-9.13951	 -16.567	C.1
   180	2	-0.0401874	-9.60595	-17.2855	C.1
   181	2	-0.377811	-10.2517	-15.4546	C.1
   182	2	-0.764887	-10.7182	 -16.173	C.1
   183	1	-2.98602	-3.76484	 8.39106	N.3
   184	2	-3.55045	-2.91508	 7.96653	C.1
   185	2	-4.01244	-3.73355	 7.98317	C.1
   186	2	-2.66439	-3.38653	 9.37812	C.1
   187	2	-3.12639	  -4.205	 9.39476	C.1
   188	2	-2.05023	-3.76522	 7.80357	C.1
   189	2	-2.51222	-4.58369	 7.82021	C.1
   190	1	 3.70071	-13.1983	 6.70522	N.3
   191	2	  4.3679	-12.4406	 6.25622	C.1
   192	2	 3.51539	-12.5046	 5.86541	C.1
   193	2	 3.70721	-12.9363	 7.77861	C.1
   194	2	  2.8547	-13.0003	  7.3878	C.1
   195	2	 4.30579	 -14.122	 6.66705	C.1
   196	2	 3.45328	 -14.186	 6.27624	C.1
   197	1	-10.4885	-6.20277	-2.48169	N.3
   198	2	-10.5533	-5.13587	-2.20166	C.1
   199	2	-10.2932	-5.30107	-3.08973	C.1
   200	2	-11.4814	-6.59827	-2.20143	C.1
   201	2	-11.2213	-6.76347	 -3.0895	C.1
   202	2	-9.82084	-6.62638	-1.70989	C.1
   203	2	-9.56076	-6.79158	-2.59796	C.1
   204	1	-6.36911	 9.93078	-13.7474	N.3
   205	2	-6.92817	  9.4021	-14.5404	C.1
   206	2	-7.41055	 10.0708	 -14.089	C.1
   207	2	-5.45912	 10.2785	-14.2688	C.1
   208	2	 -5.9415	 10.9472	-13.8174	C.1
   209	2	-5.99645	 9.10868	-13.1101	C.1
   210	2	-6.47883	 9.77737	-12.6587	C.1
   211	1	-9.27532	 8.74487	0.902347	N.3
   212	2	-9.78445	 8.13573	 1.67088	C.1
   213	2	-8.87477	 8.30703	 1.83442	C.1
   214	2	-9.91608	 9.64175	0.825577	C.1
   215	2	-9.00641	 9.81305	0.989119	C.1
   216	2	-9.48995	 8.20018	-0.0347241	C.1
   217	2	-8.58027	 8.37148	0.128818	C.1
   218	1	-8.82969	 16.5773	-19.9323	N.3
   219	2	 -9.5438	 16.2133	-20.6928	C.1
   220	2	-8.83534	 15.6274	-20.4967	C.1
   221	2	-9.48025	 16.8314	-19.0761	C.1
   222	2	 -8.7718	 16.2455	-18.8799	C.1
   223	2	-8.52771	 17.5661	-20.3221	C.1
   224	2	-7.81926	 16.9802	 -20.126	C.1
   225	1	-8.74687	-11.0326	 7.60086	N.3
   226	2	-9.39227	-10.6546	 6.78758	C.1
   227	2	-9.35417	-11.5906	 6.86546	C.1
   228	2	-9.12692	-10.5019	 8.49235	C.1
   229	2	-9.08881	-11.4379	 8.57023	C.1
   230	2	-7.77858	-10.5374	 7.40582	C.1
   231	2	-7.74047	-11.4734	  7.4837	C.1
   232	1	 5.07848	 1.89273	 4.91367	N.3
   233	2	 5.09425	 1.50305	 3.87985	C.1
   234	2	 4.26296	 1.83169	 4.17063	C.1
   235	2	 5.90267	 2.62863	 4.91884	C.1
   236	2	 5.07138	 2.95726	 5.20963	C.1
   237	2	 5.48545	 1.05357	 5.50616	C.1
   238	2	 4.65416	  1.3822	 5.79694	C.1
   239	1	 5.51893	-2.84078	-4.16618	N.3
   240	2	 6.00612	-1.87551	-3.93859	C.1
   241	2	 6.45328	-2.63562	 -3.6132	C.1
   242	2	 5.38869	-2.80562	-5.26283	C.1
   243	2	 5.83586	-3.56573	-4.93745	C.1
   244	2	 4.49122	-2.70105	-3.78519	C.1
   245	2	 4.93839	-3.46116	 -3.4598	C.1
   246	1	-1.39519	 4.00591	 9.87975	N.3
   247	2	-1.86478	 3.11225	 9.43058	C.1
   248	2	-1.56796	 3.00558	 10.3161	C.1
   249	2	-2.15619	 4.79301	 9.73073	C.1
   250	2	-1.85938	 4.68634	 10.6162	C.1
   251	2	-0.609821	 4.27248	 9.14969	C.1
   252	2	-0.313004	 4.16581	 10.0352	C.1
   253	1	-0.361931	 17.0387	-8.79359	N.3
   254	2	0.441349	 16.6727	  -8.129	C.1
   255	2	-0.122685	 17.3241	 -7.7533	C.1
   256	2	-0.86606	 16.1098	-9.11578	C.1
   257	2	-1.43009	 16.7612	-8.74009	C.1
   258	2	0.184968	 17.3566	-9.69954	C.1
   259	2	-0.379066	  18.008	-9.32384	C.1
   260	1	 4.09758	 12.8213	 1.46428	N.3
   261	2	 4.34406	 12.1985	 2.34304	C.1
   262	2	 3.68768	 12.8552	 2.48982	C.1
   263	2	 3.85077	 12.0755	 0.68729	C.1
   264	2	 3.19439	 12.7322	0.834075	C.1
   265	2	 5.08248	  13.205	 1.14233	C.1
   266	2	 4.42609	 13.8616	 1.28912	C.1
   267	1	-19.2983	-16.3913	-12.0173	N.3
   268	2	-19.1596	-15.3693	-11.6206	C.1
   269	2	-19.5633	-15.4179	-12.4681	C.1
   270	2	 -19.845	 -16.905	-11.2061	C.1
   271	2	-20.2487	-16.9536	-12.0536	C.1
   272	2	-18.2847	-16.8265	-11.9538	C.1
   273	2	-18.6884	-16.8751	-12.8013	C.1
   274	1	 10.1279	-6.64103	-6.70184	N.3
   275	2	  9.4133	-7.12378	-6.01101	C.1
   276	2	 9.27057	-6.20622	-6.15697	C.1
   277	2	 10.0731	-7.27475	-7.60531	C.1
   278	2	 9.93039	-6.35719	-7.75127	C.1
   279	2	 11.1113	-6.90089	-6.27027	C.1
   280	2	 10.9685	-5.98333	-6.41623	C.1
   281	1	 18.9157	-14.4299	 -8.5814	N.3
   282	2	 18.2243	-14.1463	-9.39532	C.1
   283	2	 17.8138	-14.3477	  -8.574	C.1
   284	2	 19.6328	-13.5898	-8.55492	C.1
   285	2	 19.2223	-13.7911	 -7.7336	C.1
   286	2	 19.5056	-15.2516	-9.02595	C.1
   287	2	 19.0952	 -15.453	-8.20463	C.1
   288	1	-1.80932	 4.52036	 12.4811	N.3
   289	2	-1.04025	 4.62147	  13.268	C.1
   290	2	-1.82599	 4.17789	 13.5315	C.1
   291	2	-1.25842	 4.04617	 11.6489	C.1
   292	2	-2.04417	 3.60259	 11.9124	C.1
   293	2	-1.95067	 5.55882	 12.1311	C.1
   294	2	-2.73641	 5.11523	 12.3946	C.1
   295	1	-16.7215	-18.2024	 -14.688	N.3
   296	2	-16.5517	-17.4298	-13.9165	C.1
   297	2	 -17.443	-17.5223	-14.2004	C.1
   298	2	-16.2742	-19.1084	-14.2409	C.1
   299	2	-17.1655	-19.2009	-14.5248	C.1
   300	2	-16.0016	-17.9302	-15.4808	C.1
   301	2	-16.8929	-18.0227	-15.7647	C.1
   302	1	-12.6381	 -2.9185	-19.2863	N.3
   303	2	-13.1341	-2.09148	-18.7468	C.1
   304	2	-13.0771	-2.90098	-18.2724	C.1
   305	2	-11.6692	-2.47981	-19.5854	C.1
   306	2	-11.6122	-3.28931	 -19.111	C.1
   307	2	-13.1967	-2.96994	-20.2382	C.1
   308	2	-13.1397	-3.77944	-19.7638	C.1
   309	1	-5.76886	 15.0672	-10.3904	N.3
   310	2	-5.39714	 14.5857	-9.46799	C.1
   311	2	-5.48219	 15.5209	-9.42459	C.1
   312	2	 -6.7049	 14.5194	-10.6017	C.1
   313	2	-6.78994	 15.4546	-10.5583	C.1
   314	2	-5.07696	 14.6937	-11.1667	C.1
   315	2	  -5.162	 15.6288	-11.1233	C.1
   316	1	-0.199913	 13.2368	 8.37237	N.3
   317	2	0.634572	 13.6577	 8.96173	C.1
   318	2	0.438239	 12.7549	  9.1349	C.1
   319	2	0.0874453	 13.4637	 7.32987	C.1
   320	2	-0.108888	 12.5609	 7.50304	C.1
   321	2	-1.02726	 13.9432	 8.56575	C.1
   322	2	-1.22359	 13.0404	 8.73891	C.1
   323	1	 18.7243	 19.9242	-15.1735	N.3
   324	2	 18.6856	 18.9925	-15.7663	C.1
   325	2	 17.9095	 19.5217	-15.8019	C.1
   326	2	 19.6453	 20.4157	-15.5354	C.1
   327	2	 18.8692	 20.9449	 -15.571	C.1
   328	2	 19.0062	 19.5705	-14.1654	C.1
   329	2	 18.2301	 20.0996	 -14.201	C.1
   330	1	 14.5459	-16.0817	 9.32516	N.3
   331	2	 14.2615	-15.6711	 10.3108	C.1
   332	2	 13.6027	-15.6023	 9.64376	C.1
   333	2	 14.8675	-17.1115	 9.56372	C.1
   334	2	 14.2087	-17.0427	  8.8967	C.1
   335	2	  15.497	-15.5656	 9.10151	C.1
   336	2	 14.8382	-15.4968	 8.43449	C.1
   337	1	-3.49188	 15.7218	 6.13807	N.3
   338	2	-3.20594	 16.7654	  6.3619	C.1
   339	2	-3.97704	 16.4587	 6.80338	C.1
   340	2	-2.56883	 15.1548	 6.35559	C.1
   341	2	-3.33993	 14.8481	 6.79707	C.1
   342	2	-3.54423	 15.7054	 5.03451	C.1
   343	2	-4.31533	 15.3987	 5.47599	C.1
   344	1	-1.52835	 14.4901	-11.6424	N.3
   345	2	-2.54561	 14.8211	-11.3658	C.1
   346	2	-1.88715	 15.4916	-11.3438	C.1
   347	2	-1.67771	 14.0101	-12.6263	C.1
   348	2	-1.01926	 14.6806	-12.6043	C.1
   349	2	 -1.3494	 13.6333	 -10.968	C.1
   350	2	-0.690944	 14.3038	 -10.946	C.1
   351	1	-17.2856	 -9.2994	0.970776	N.3
   352	2	-17.4363	-9.22647	 2.06296	C.1
   353	2	-17.4023	-10.1016	 1.72159	C.1
   354	2	-16.3781	-8.69264	0.799929	C.1
   355	2	-16.3441	 -9.5678	0.458556	C.1
   356	2	-18.0934	-8.66635	0.561495	C.1
   357	2	-18.0594	-9.54151	0.220123	C.1
   358	1	-10.5006	 9.69785	 10.0791	N.3
   359	2	-10.4881	 8.60742	 10.2571	C.1
   360	2	-10.9395	 8.88035	 9.47912	C.1
   361	2	-9.43145	 9.97326	 10.1232	C.1
   362	2	-9.88288	 10.2462	 9.34516	C.1
   363	2	-10.9051	 10.1035	 11.0239	C.1
   364	2	-11.3565	 10.3764	 10.2459	C.1
   365	1	   1.335	-4.26296	-9.76532	N.3
   366	2	 1.00647	-4.23389	-10.8199	C.1
   367	2	 1.81531	-4.68723	-10.6654	C.1
   368	2	0.456317	-4.67656	-9.23833	C.1
   369	2	 1.26516	 -5.1299	-9.08386	C.1
   370	2	 1.32894	 -3.1984	-9.46943	C.1
   371	2	 2.13778	-3.65175	-9.31496	C.1
   372	1	-14.5566	 5.05181	 -10.138	N.3
   373	2	-15.3608	 5.72552	-9.79116	C.1
   374	2	-14.7233	 6.12196	-10.3569	C.1
   375	2	-15.1105	 4.20223	-10.5766	C.1
   376	2	 -14.473	 4.59867	-11.1423	C.1
   377	2	-14.1548	 4.63302	 -9.1978	C.1
   378	2	-13.5174	 5.02946	-9.76351	C.1
   379	1	  14.619	-2.84806	-9.86861	N.3
   380	2	 13.8765	 -3.2648	-10.5728	C.1
   381	2	 13.6358	 -3.3093	-9.66517	C.1
   382	2	 14.7935	 -1.8293	-10.2592	C.1
   383	2	 14.5528	 -1.8738	-9.35161	C.1
   384	2	 15.5481	-3.38333	-10.1353	C.1
   385	2	 15.3075	-3.42782	-9.22768	C.1
   386	1	 4.41788	-6.43786	 3.79562	N.3
   387	2	 4.78207	-7.02596	 4.65725	C.1
   388	2	 5.01552	-7.36707	 3.81301	C.1
   389	2	 4.78889	-5.41941	 4.01002	C.1
   390	2	 5.02234	-5.76052	 3.16578	C.1
   391	2	 3.33252	-6.35655	 3.98595	C.1
   392	2	 3.56597	-6.69766	 3.14171	C.1
   393	1	 2.66487	 16.9979	 12.3267	N.3
   394	2	 2.24369	 16.8563	 13.3383	C.1
   395	2	 1.62723	 16.7741	 12.6335	C.1
   396	2	 3.50635	 16.2823	  12.301	C.1
   397	2	 2.88989	 16.2001	 11.5961	C.1
   398	2	 3.16925	 17.9784	 12.3981	C.1
   399	2	 2.55279	 17.8962	 11.6932	C.1
   400	1	-2.29512	-4.55252	 -19.178	N.3
   401	2	-1.59689	-3.85492	-19.6747	C.1
   402	2	-1.63222	-4.71756	-20.0464	C.1
   403	2	 -3.2514	-3.99903	 -19.183	C.1
   404	2	-3.28674	-4.86167	-19.5547	C.1
   405	2	-1.98405	-4.50963	-18.1186	C.1
   406	2	-2.01939	-5.37228	-18.4903	C.1
   407	1	-16.4497	 9.10322	 7.07081	N.3
   408	2	-17.2614	 8.62468	 7.64793	C.1
   409	2	-17.3169	 9.56061	 7.58042	C.1
   410	2	-16.4701	 8.56055	 6.10854	C.1
   411	2	-16.5256	 9.49648	 6.04103	C.1
   412	2	-15.5344	 8.72053	 7.55722	C.1
   413	2	-15.5899	 9.65645	 7.48971	C.1
   414	1	-11.9193	-9.66616	-14.8372	N.3
   415	2	-12.3649	-8.94457	-15.5455	C.1
   416	2	-12.1155	-8.58587	-14.7132	C.1
   417	2	-11.0962	 -10.117	-15.4204	C.1
   418	2	-10.8468	-9.75835	 -14.588	C.1
   419	2	 -12.671	-10.4749	-14.7943	C.1
   420	2	-12.4216	-10.1162	 -13.962	C.1
   421	1	 17.9852	-8.50879	-4.62489	N.3
   422	2	 18.9584	-8.15825	-4.23654	C.1
   423	2	 18.2786	-8.24395	-3.59306	C.1
   424	2	 18.2469	-9.43999	-5.15896	C.1
   425	2	 17.5671	-9.52568	-4.51547	C.1
   426	2	   17.77	-7.79959	-5.44438	C.1
   427	2	 17.0901	-7.88529	 -4.8009	C.1
   428	1	 14.4465	 4.23954	-16.1971	N.3
   429	2	 13.4808	 3.85651	-15.8209	C.1
   430	2	 14.1307	 3.20011	-15.9953	C.1
   431	2	 14.7311	 4.99337	 -15.441	C.1
   432	2	 15.3809	 4.33697	-15.6154	C.1
   433	2	  14.153	 4.85334	-17.0677	C.1
   434	2	 14.8028	 4.19694	-17.2421	C.1
   435	1	-7.95444	 2.38815	  4.7708	N.3
   436	2	-7.97997	 2.43265	 3.66705	C.1
   437	2	-8.17777	 1.59189	   4.038	C.1
   438	2	-8.63306	 3.20632	 5.07235	C.1
   439	2	-8.83085	 2.36556	 5.44329	C.1
   440	2	-6.95361	 2.78661	 5.01659	C.1
   441	2	 -7.1514	 1.94585	 5.38753	C.1
   442	1	 19.3009	 5.54228	-0.129804	N.3
   443	2	 19.6508	 6.57044	0.0735277	C.1
   444	2	 19.7761	 5.95908	0.776473	C.1
   445	2	 19.8123	 5.28358	-1.07446	C.1
   446	2	 19.9376	 4.67222	-0.371516	C.1
   447	2	 18.2516	 5.68987	-0.442895	C.1
   448	2	 18.3769	 5.07851	 0.26005	C.1
   449	1	-9.66221	 10.6297	-14.6319	N.3
   450	2	-9.97238	 10.4948	  -13.58	C.1
   451	2	 -10.612	 10.9007	-14.1366	C.1
   452	2	-9.35158	  9.6138	-14.9359	C.1
   453	2	 -9.9912	 10.0196	-15.4924	C.1
   454	2	-8.70324	 11.1716	 -14.545	C.1
   455	2	-9.34286	 11.5774	-15.1016	C.1
   456	1	0.766186	 3.37531	-8.25057	N.3
   457	2	 1.48521	 2.54864	-8.10735	C.1
   458	2	0.823859	  2.3952	-8.75748	C.1
   459	2	 1.41807	 4.24713	-8.43991	C.1
   460	2	0.756716	 4.09368	-9.09004	C.1
   461	2	0.387305	 3.56034	-7.22926	C.1
   462	2	-0.274047	  3.4069	-7.87939	C.1
   463	1	 -15.418	 1.26032	-9.27464	N.3
   464	2	-15.5077	0.289914	-8.75391	C.1
   465	2	-15.7633	 0.28341	-9.65848	C.1
   466	2	-14.3696	 1.55302	-9.08452	C.1
   467	2	-14.6252	 1.54651	-9.98909	C.1
   468	2	-15.9933	 1.94778	-8.62865	C.1
   469	2	-16.2488	 1.94127	-9.53322	C.1
   470	1	-5.89173	 4.51015	 14.8583	N.3
   471	2	-5.91384	 5.00244	 15.8473	C.1
   472	2	-6.60219	 4.38077	 15.6946	C.1
   473	2	-4.86724	 4.09998	 14.8032	C.1
   474	2	-5.55559	 3.47832	 14.6505	C.1
   475	2	-5.86158	 5.36054	 14.1535	C.1
   476	2	-6.54993	 4.73887	 14.0008	C.1
   477	1	-9.64817	-14.7102	-7.65005	N.3
   478	2	-9.93201	-14.1766	-8.57503	C.1
   479	2	-10.3785	-13.8943	-7.79753	C.1
   480	2	-8.54856	-14.6049	  -7.625	C.1
   481	2	-8.99507	-14.3226	 -6.8475	C.1
   482	2	-9.79417	-15.7726	-7.91636	C.1
   483	2	-10.2407	-15.4903	-7.13885	C.1
   484	1	 4.57097	-13.6287	-5.38987	N.3
   485	2	 5.51345	-13.1041	-5.15025	C.1
   486	2	   4.747	 -12.763	-4.72622	C.1
   487	2	 4.80421	-14.6842	-5.16109	C.1
   488	2	 4.03776	-14.3431	-4.73705	C.1
   489	2	 4.54493	-13.6095	-6.49432	C.1
   490	2	 3.77849	-13.2684	-6.07029	C.1
   491	1	  19.652	-0.918892	-13.2591	N.3
   492	2	 19.3925	0.126653	-13.0134	C.1
   493	2	 19.3229	-0.0993359	-13.9232	C.1
   494	2	 19.0088	-1.50543	-12.5786	C.1
   495	2	 18.9392	-1.73142	-13.4884	C.1
   496	2	 20.6591	-1.03892	-12.8207	C.1
   497	2	 20.5895	-1.26491	-13.7305	C.1
   498	1	 9.77547	0.519299	-11.3559	N.3
   499	2	 10.5491	 1.06474	-11.9259	C.1
   500	2	 9.78492	0.824542	-12.4178	C.1
   501	2	 9.58847	  1.1786	-10.4891	C.1
   502	2	 8.82431	  0.9384	 -10.981	C.1
   503	2	 10.3351	-0.325144	-10.9147	C.1
   504	2	 9.57093	-0.565341	-11.4066	C.1
   505	1	-12.7978	-1.96729	 19.0423	N.3
   506	2	-12.8256	-1.37518	 19.9747	C.1
   507	2	-13.4567	-1.12627	  19.324	C.1
   508	2	-12.8793	-3.00886	 19.4019	C.1
   509	2	-13.5104	-2.75995	 18.7512	C.1
   510	2	-11.7417	-1.89119	 18.7262	C.1
   511	2	-12.3728	-1.64228	 18.0755	C.1
   512	1	-13.9998	 18.6396	-10.9079	N.3
   513	2	-13.9714	 19.7301	-11.0835	C.1
   514	2	-14.8321	 19.3581	-11.0173	C.1
   515	2	-13.3622	 18.5108	-10.0148	C.1
   516	2	-14.2229	 18.1388	-9.94858	C.1
   517	2	-13.3749	 18.2358	-11.7248	C.1
   518	2	-14.2356	 17.8638	-11.6586	C.1
   519	1	-19.8769	-16.2367	0.288488	N.3
   520	2	-20.3922	-17.1849	0.525956	C.1
   521	2	-19.4632	-17.2551	0.400815	C.1
   522	2	-20.1913	-15.5661	 1.10843	C.1
   523	2	-19.2623	-15.6364	0.983289	C.1
   524	2	-20.4407	-15.8538	-0.581212	C.1
   525	2	-19.5117	 -15.924	-0.706354	C.1
   526	1	-12.4808	-5.37147	-1.79508	N.3
   527	2	-12.6312	-4.27825	-1.85112	C.1
   528	2	-11.9353	-4.61408	-2.38649	C.1
   529	2	 -13.484	-5.77634	-2.01983	C.1
   530	2	-12.7881	-6.11216	-2.55519	C.1
   531	2	-12.3709	-5.55609	-0.711243	C.1
   532	2	 -11.675	-5.89192	-1.24661	C.1
   533	1	 14.2476	-1.60435	-7.28138	N.3
   534	2	 14.3242	-1.38584	-8.36178	C.1
   535	2	  13.727	-0.838813	-7.88457	C.1
   536	2	 15.2977	-1.56315	-6.94026	C.1
   537	2	 14.7006	-1.01612	-6.46304	C.1
   538	2	 14.0166	-2.68461	-7.25791	C.1
   539	2	 13.4194	-2.13759	-6.78069	C.1
   540	1	-17.8683	 1.93051	 5.36968	N.3
   541	2	-16.9776	 2.29714	  5.9112	C.1
   542	2	-17.0749	 2.62293	 5.03484	C.1
   543	2	-18.6991	 2.17337	 6.05637	C.1
   544	2	-18.7964	 2.49915	 5.18002	C.1
   545	2	-17.7821	0.832342	 5.45599	C.1
   546	2	-17.8794	 1.15813	 4.57964	C.1
   547	1	-17.4813	 17.6832	 7.25745	N.3
   548	2	 -16.523	 17.4829	 6.74511	C.1
   549	2	-16.5929	 17.1315	 7.61413	C.1
   550	2	-18.2343	 17.3127	  6.5387	C.1
   551	2	-18.3042	 16.9613	 7.40772	C.1
   552	2	-17.5818	 18.7812	 7.18502	C.1
   553	2	-17.6517	 18.4297	 8.05404	C.1
   554	1	-11.4353	-8.76392	 6.53425	N.3
   555	2	-12.0338	-7.89566	 6.20447	C.1
   556	2	-11.7632	-7.87612	 7.10447	C.1
   557	2	-10.6131	-8.79863	 5.79693	C.1
   558	2	-10.3425	-8.77909	 6.69693	C.1
   559	2	-12.0648	-9.62679	 6.25136	C.1
   560	2	-11.7942	-9.60725	 7.15136	C.1
   561	1	 9.86013	 18.6694	-7.80188	N.3
   562	2	 9.37793	 19.5963	-7.44239	C.1
   563	2	    9.84	  19.676	 -8.2571	C.1
   564	2	 9.03257	 17.9373	-7.80059	C.1
   565	2	 9.49464	  18.017	-8.61529	C.1
   566	2	 10.4768	 18.3551	-6.94061	C.1
   567	2	 10.9388	 18.4348	-7.75531	C.1
   568	1	-16.5339	 1.74251	-4.03275	N.3
   569	2	-16.4268	0.650338	-4.16155	C.1
   570	2	-16.6474	0.930666	-3.29186	C.1
   571	2	-17.2638	 2.01871	-4.81491	C.1
   572	2	-17.4844	 2.29904	-3.94522	C.1
   573	2	-15.5802	 2.13799	-4.42634	C.1
   574	2	-15.8008	 2.41832	-3.55665	C.1
   575	1	 18.9799	  6.1557	 7.57325	N.3
   576	2	 19.1629	 5.54013	 6.67409	C.1
   577	2	 19.4944	 6.41871	 6.63142	C.1
   578	2	 19.3918	 5.53716	 8.39094	C.1
   579	2	 19.7233	 6.41574	 8.34826	C.1
   580	2	 17.8878	 6.07195	 7.71874	C.1
   581	2	 18.2193	 6.95053	 7.67607	C.1
   582	1	 1.75967	  18.611	 -12.326	N.3
   583	2	 2.07159	 18.3558	-11.2972	C.1
   584	2	 2.51288	 17.8812	-11.9781	C.1
   585	2	 1.88264	 19.7084	-12.3624	C.1
   586	2	 2.32392	 19.2338	-13.0433	C.1
   587	2	0.662852	 18.4805	-12.2971	C.1
   588	2	 1.10413	 18.0059	 -12.978	C.1
   589	1	 7.80265	-9.93591	 16.9515	N.3
   590	2	 8.90277	-9.86787	  17.029	C.1
   591	2	 8.42526	-9.33397	 17.6377	C.1
   592	2	 7.61075	-11.0214	 17.0272	C.1
   593	2	 7.13324	-10.4875	 17.6359	C.1
   594	2	 7.61069	-9.71931	 15.8851	C.1
   595	2	 7.13319	-9.18541	 16.4938	C.1
   596	1	-15.1488	-8.59468	-14.7836	N.3
   597	2	-15.5517	-7.57782	-14.6266	C.1
   598	2	-16.1578	-8.27757	-14.4637	C.1
   599	2	 -14.239	-8.60551	-14.1567	C.1
   600	2	-14.8452	-9.30526	-13.9938	C.1
   601	2	-14.7466	-8.55108	-15.8118	C.1
   602	2	-15.3527	-9.25083	-15.6489	C.1
   603	1	 4.61588	-5.78282	 6.48876	N.3
   604	2	 3.72148	-6.40754	  6.3136	C.1
   605	2	 3.60815	-5.71274	 6.93651	C.1
   606	2	 4.90169	   -5.46	 5.47144	C.1
   607	2	 4.78836	 -4.7652	 6.09435	C.1
   608	2	 5.39446	-6.52311	 6.74689	C.1
   609	2	 5.28113	-5.82832	  7.3698	C.1
   610	1	-7.27746	-14.4084	 -10.704	N.3
   611	2	-7.20453	 -13.768	-9.80653	C.1
   612	2	-8.06957	-14.0746	-10.0097	C.1
   613	2	-6.53148	-15.2002	-10.5105	C.1
   614	2	-7.39652	-15.5069	-10.7137	C.1
   615	2	 -6.7988	-13.7971	-11.4901	C.1
   616	2	-7.66384	-14.1037	-11.6933	C.1
   617	1	-13.2896	-7.30418	-0.634227	N.3
   618	2	-12.9614	-6.70009	0.230761	C.1
   619	2	 -12.906	-6.26847	-0.602447	C.1
   620	2	 -14.303	-7.63384	-0.342088	C.1
   621	2	-14.2476	-7.20222	 -1.1753	C.1
   622	2	-12.6876	-8.22606	-0.541543	C.1
   623	2	-12.6323	-7.79443	-1.37475	C.1
   624	1	 19.9896	 18.0145	-16.6408	N.3
   625	2	 21.0197	 17.6148	-16.6467	C.1
   626	2	 20.9254	 18.4714	-16.2713	C.1
   627	2	 19.4117	 17.2162	-16.1413	C.1
   628	2	 19.3174	 18.0727	-15.7658	C.1
   629	2	 19.6789	 17.9277	-17.6976	C.1
   630	2	 19.5846	 18.7843	-17.3221	C.1
   631	1	 2.11356	-6.21565	 18.3871	N.3
   632	2	 1.69846	-5.45745	 17.6988	C.1
   633	2	 1.09751	-5.78361	 18.3439	C.1
   634	2	 3.01558	-5.72239	  18.792	C.1
   635	2	 2.41462	-6.04855	  19.437	C.1
   636	2	 2.52808	-6.97787	  17.703	C.1
   637	2	 1.92713	-7.30402	  18.348	C.1
   638	1	-19.0983	 19.6952	 12.8288	N.3
   639	2	-19.8683	 20.4492	 13.0728	C.1
   640	2	-19.0505	 20.7974	 12.7671	C.1
   641	2	-19.6173	 19.0241	 12.1209	C.1
   642	2	-18.7995	 19.3723	 11.8152	C.1
   643	2	 -19.036	 19.0901	 13.7511	C.1
   644	2	-18.2182	 19.4383	 13.4454	C.1
   645	1	-17.6629	 1.17638	 19.0904	N.3
   646	2	-16.6914	0.680698	 18.9129	C.1
   647	2	-16.6441	 1.50185	 19.3679	C.1
   648	2	-18.2577	0.393354	 19.5943	C.1
   649	2	-18.2103	  1.2145	 20.0494	C.1
   650	2	-18.1106	 1.22335	 18.0813	C.1
   651	2	-18.0632	  2.0445	 18.5364	C.1
   652	1	 13.8906	-15.6139	 14.7334	N.3
   653	2	 13.7143	-14.8743	 13.9316	C.1
   654	2	 12.9454	-15.1519	 14.3957	C.1
   655	2	 14.6666	-15.1322	 15.3551	C.1
   656	2	 13.8977	-15.4097	 15.8192	C.1
   657	2	 14.4442	-16.4189	 14.2172	C.1
   658	2	 13.6753	-16.6964	 14.6813	C.1
   659	1	  14.627	-3.26885	 15.4203	N.3
   660	2	 14.3944	-2.61408	 16.2794	C.1
   661	2	 14.5078	-3.52338	 16.4889	C.1
   662	2	 15.5044	-2.77958	 14.9601	C.1
   663	2	 15.6178	-3.68889	 15.1696	C.1
   664	2	 13.8122	-3.04894	 14.7071	C.1
   665	2	 13.9257	-3.95825	 14.9166	C.1
   666	1	 11.2632	 19.5783	-1.36543	N.3
   667	2	  12.062	 19.3425	-0.639321	C.1
   668	2	 12.3572	  19.705	-1.45481	C.1
   669	2	 10.5771	 20.2219	-0.785958	C.1
   670	2	 10.8723	 20.5844	-1.60145	C.1
   671	2	 10.7078	 18.6266	-1.44778	C.1
   672	2	  11.003	 18.9892	-2.26327	C.1
   673	1	-17.6028	-16.8359	-2.71775	N.3
   674	2	-18.3533	-16.3678	-2.05556	C.1
   675	2	-17.7485	-15.7717	-2.45865	C.1
   676	2	-18.2186	-17.4268	-3.41951	C.1
   677	2	-17.6138	-16.8307	 -3.8226	C.1
   678	2	-17.1436	-17.6073	-2.07354	C.1
   679	2	-16.5388	-17.0112	-2.47663	C.1
   680	1	  3.0942	-3.96307	 8.38834	N.3
   681	2	 2.60455	-3.14983	 7.82285	C.1
   682	2	 2.69474	-3.96193	 7.35813	C.1
   683	2	 2.50012	-4.01724	 9.31839	C.1
   684	2	 2.59031	-4.82934	 8.85367	C.1
   685	2	 4.04264	  -3.504	 8.72086	C.1
   686	2	 4.13283	 -4.3161	 8.25614	C.1
   687	1	 14.9969	-1.55235	  18.829	N.3
   688	2	 14.8481	-2.64544	 18.7665	C.1
   689	2	 14.1444	-2.16839	 19.1676	C.1
   690	2	 15.2226	-1.26808	 17.7854	C.1
   691	2	  14.519	-0.79103	 18.1865	C.1
   692	2	 15.9755	 -1.4591	 19.3335	C.1
   693	2	 15.2718	-0.982055	 19.7345	C.1
   694	1	 17.3586	-11.7681	 3.07798	N.3
   695	2	  16.812	-12.6859	 3.36047	C.1
   696	2	 17.0408	-12.6207	 2.45109	C.1
   697	2	 18.2122	-11.7565	 3.77947	C.1
   698	2	 18.4411	-11.6913	 2.87009	C.1
   699	2	 16.7083	-10.9597	 3.45808	C.1
   700	2	 16.9372	-10.8945	  2.5487	C.1
   701	1	-14.2993	 11.6919	 2.09695	N.3
   702	2	-14.2456	 11.3839	 1.03715	C.1
   703	2	 -13.577	 11.0253	 1.59208	C.1
   704	2	-15.3351	 11.4345	 2.38266	C.1
   705	2	-14.6665	  11.076	 2.93758	C.1
   706	2	  -14.32	 12.7951	 2.03865	C.1
   707	2	-13.6514	 12.4365	 2.59357	C.1
   708	1	 6.39941	 14.9651	 1.04673	N.3
   709	2	 6.89973	 13.9922	  1.2018	C.1
   710	2	 6.06668	 14.0857	  1.6271	C.1
   711	2	 6.37948	 15.0664	-0.0533565	C.1
   712	2	 5.54642	 15.1599	0.371948	C.1
   713	2	  7.1686	 15.6965	 1.35381	C.1
   714	2	 6.33554	   15.79	 1.77911	C.1
   715	1	-6.36872	 18.3546	-15.9665	N.3
   716	2	-5.44823	 18.4882	-16.5629	C.1
   717	2	-5.62155	 17.6064	-16.2872	C.1
   718	2	-7.14957	 18.8106	-16.6015	C.1
   719	2	-7.32289	 17.9288	-16.3258	C.1
   720	2	-6.24839	 19.0876	-15.1485	C.1
   721	2	-6.42171	 18.2058	-14.8729	C.1
   722	1	 2.12132	-18.6527	 10.0977	N.3
   723	2	 1.36936	-18.3159	 10.8339	C.1
   724	2	 2.21225	-18.5281	 11.1918	C.1
   725	2	 2.12011	-17.8422	 9.34667	C.1
   726	2	   2.963	-18.0544	 9.70457	C.1
   727	2	 1.61016	-19.4815	 9.57565	C.1
   728	2	 2.45305	-19.6938	 9.93354	C.1
   729	1	 19.2333	-3.41693	 17.1292	N.3
   730	2	  18.689	-2.53556	 16.7446	C.1
   731	2	 18.8179	-3.22859	 16.1227	C.1
   732	2	 18.6582	-3.69528	 18.0307	C.1
   733	2	 18.7871	-4.38831	 17.4088	C.1
   734	2	 20.1592	-2.98039	  17.545	C.1
   735	2	 20.2881	-3.67342	 16.9232	C.1
   736	1	 2.80402	 5.77487	 17.0782	N.3
   737	2	 3.39221	   6.536	 17.6219	C.1
   738	2	 3.30147	 6.68542	 16.6983	C.1
   739	2	 1.85549	 5.73727	 17.6436	C.1
   740	2	 1.76475	 5.88669	   16.72	C.1
   741	2	 3.30046	 4.82719	 17.3544	C.1
   742	2	 3.20973	 4.97662	 16.4308	C.1
   743	1	 19.3216	0.400146	-8.18951	N.3
   744	2	 19.6277	 0.51052	-7.13356	C.1
   745	2	 20.2792	0.142158	 -7.7023	C.1
   746	2	 18.9805	  1.4154	-8.46106	C.1
   747	2	  19.632	 1.04704	-9.02979	C.1
   748	2	 18.3794	-0.172938	-8.12082	C.1
   749	2	 19.0309	 -0.5413	-8.68955	C.1
   750	1	 -11.433	 5.94435	-16.2447	N.3
   751	2	-11.5558	 4.84759	-16.2988	C.1
   752	2	-12.0152	 5.33442	-16.9588	C.1
   753	2	-10.3359	 6.07582	-16.2419	C.1
   754	2	-10.7953	 6.56266	-16.9019	C.1
   755	2	-11.7182	 6.17938	-15.2034	C.1
   756	2	-12.1776	 6.66622	-15.8634	C.1
   757	1	-15.6816	-6.81464	 19.4671	N.3
   758	2	-15.9922	 -5.9618	 18.8369	C.1
   759	2	-15.2878	-6.47921	 18.4907	C.1
   760	2	 -16.627	-7.36095	 19.6365	C.1
   761	2	-15.9227	-7.87835	 19.2903	C.1
   762	2	-15.4822	-6.34505	 20.4472	C.1
   763	2	-14.7779	-6.86246	  20.101	C.1
   764	1	-19.8431	 13.8064	-19.3637	N.3
   765	2	 -18.934	 13.3392	-19.7835	C.1
   766	2	-19.2807	 14.0573	-20.2811	C.1
   767	2	-19.5456	 14.0523	-18.3283	C.1
   768	2	-19.8923	 14.7704	 -18.826	C.1
   769	2	-20.5295	 12.9506	-19.2327	C.1
   770	2	-20.8762	 13.6687	-19.7304	C.1
   771	1	 19.5672	-17.4697	 6.42633	N.3
   772	2	 19.7842	-16.9749	 7.39014	C.1
   773	2	 20.3484	-16.7303	 6.67915	C.1
   774	2	 18.4943	-17.2575	 6.26938	C.1
   775	2	 19.0584	-17.0129	 5.55839	C.1
   776	2	 19.5769	-18.5437	 6.68597	C.1
   777	2	 20.1411	-18.2991	 5.97498	C.1
   778	1	 2.03111	-10.8606	 7.79136	N.3
   779	2	 2.35317	-10.8259	 6.73497	C.1
   780	2	  2.4082	-11.6713	 7.14214	C.1
   781	2	 1.01904	-10.4183	 7.76157	C.1
   782	2	 1.07406	-11.2637	 8.16874	C.1
   783	2	 2.63859	-10.0695	 8.26679	C.1
   784	2	 2.69362	 -10.915	 8.67397	C.1
   785	1	-16.6914	 5.09679	 1.96636	N.3
   786	2	-15.9804	 4.31794	  1.6364	C.1
   787	2	-15.6142	 5.17814	 1.73399	C.1
   788	2	-17.1301	 4.66581	 2.88433	C.1
   789	2	-16.7638	 5.52601	 2.98192	C.1
   790	2	 -17.513	 5.01631	 1.23196	C.1
   791	2	-17.1467	 5.87651	 1.32955	C.1
   792	1	-2.76821	 17.6439	 17.3385	N.3
   793	2	 -2.6516	 16.6435	 17.7931	C.1
   794	2	-1.98417	 16.8825	 17.1758	C.1
   795	2	-2.85828	 18.3107	 18.2149	C.1
   796	2	-2.19085	 18.5496	 17.5976	C.1
   797	2	-3.79589	  17.619	 16.9334	C.1
   798	2	-3.12846	 17.8579	 16.3161	C.1
   799	1	 14.5514	-6.72741	 -9.1994	N.3
   800	2	  14.983	-5.99466	-9.90488	C.1
   801	2	 15.6072	-6.44869	-9.36837	C.1
   802	2	 13.9345	-7.37227	-9.85094	C.1
   803	2	 14.5587	 -7.8263	-9.31442	C.1
   804	2	 13.8004	-6.13424	-8.64714	C.1
   805	2	 14.4246	-6.58828	-8.11063	C.1
   806	1	-2.07885	-0.473703	 2.33588	N.3
   807	2	-0.988752	-0.294528	 2.35799	C.1
   808	2	 -1.2445	-1.18402	 2.19366	C.1
   809	2	-2.44109	0.263647	   1.597	C.1
   810	2	-2.69684	-0.62584	 1.43267	C.1
   811	2	-2.42307	-0.0559973	 3.29915	C.1
   812	2	-2.67882	-0.945485	 3.13482	C.1
   813	1	 15.7551	-0.299162	 0.98217	N.3
   814	2	 15.9255	0.687373	0.514614	C.1
   815	2	 15.0572	0.341787	0.413862	C.1
   816	2	 16.0807	-0.143386	 2.02647	C.1
   817	2	 15.2124	-0.488971	 1.92572	C.1
   818	2	 16.5616	-0.923096	0.556555	C.1
   819	2	 15.6933	-1.26868	0.455803	C.1
   820	1	-17.6224	  17.057	-16.4823	N.3
   821	2	-16.8161	 17.0594	-17.2378	C.1
   822	2	-16.9732	 17.8856	-16.8179	C.1
   823	2	-17.3317	 16.2335	-15.8053	C.1
   824	2	-17.4888	 17.0598	-15.3855	C.1
   825	2	-18.4837	 16.6386	-17.0335	C.1
   826	2	-18.6408	 17.4648	-16.6137	C.1
   827	1	-10.9101	-19.0738	 17.2476	N.3
   828	2	-9.84906	-19.1912	 17.5329	C.1
   829	2	-10.1038	-19.6395	 16.7469	C.1
   830	2	-11.0467	-17.9775	 17.2287	C.1
   831	2	-11.3014	-18.4258	 16.4427	C.1
   832	2	-11.4524	-19.3801	 18.1603	C.1
   833	2	-11.7071	-19.8285	 17.3743	C.1
   834	1	 13.6701	-2.69362	-17.2137	N.3
   835	2	 13.6315	-3.36706	-18.0889	C.1
   836	2	 13.1472	-2.56648	-18.1788	C.1
   837	2	 14.7538	-2.57002	-17.0377	C.1
   838	2	 14.2695	-1.76944	-17.1276	C.1
   839	2	 13.3514	-3.34464	-16.3798	C.1
   840	2	  12.867	-2.54405	-16.4697	C.1
   841	1	-10.3488	 6.05022	 14.1097	N.3
   842	2	-11.2269	 6.24305	 13.4674	C.1
   843	2	-11.4163	 5.82893	 14.2897	C.1
   844	2	 -9.8667	 7.04173	 14.1828	C.1
   845	2	-10.0561	 6.62761	 15.0052	C.1
   846	2	-9.66873	 5.48706	 13.4455	C.1
   847	2	-9.85811	 5.07294	 14.2678	C.1
   848	1	-16.4078	-14.9169	 15.3541	N.3
   849	2	 -17.176	-15.1329	 16.1184	C.1
   850	2	-17.5037	-14.7836	 15.3095	C.1
   851	2	-15.8629	-15.8741	 15.2662	C.1
   852	2	-16.1906	-15.5248	 14.4574	C.1
   853	2	-15.6928	-14.2677	  15.891	C.1
   854	2	-16.0205	-13.9184	 15.0822	C.1
   855	1	-13.5169	-11.3299	  10.327	N.3
   856	2	 -12.548	-11.0414	 9.88113	C.1
   857	2	-12.5476	-11.1273	 10.8172	C.1
   858	2	-13.7882	-12.2455	 9.77123	C.1
   859	2	-13.7878	-12.3313	 10.7073	C.1
   860	2	-14.2151	-10.5739	 9.92468	C.1
   861	2	-14.2148	-10.6598	 10.8608	C.1
   862	1	-4.32615	 -6.3137	 17.2671	N.3
   863	2	-3.92276	-5.98185	 16.2934	C.1
   864	2	-3.84059	-5.35969	 16.9933	C.1
   865	2	-3.81741	-7.28004	 17.4352	C.1
   866	2	-3.73525	-6.65788	  18.135	C.1
   867	2	-5.36152	-6.61246	  17.023	C.1
   868	2	-5.27936	 -5.9903	 17.7228	C.1
   869	1	 7.20236	 4.13317	-8.12758	N.3
   870	2	 7.42975	 5.02376	-7.51436	C.1
   871	2	 7.98422	  4.2804	-7.36083	C.1
   872	2	 7.21874	 4.52648	   -9.16	C.1
   873	2	 7.77321	 3.78312	-9.00647	C.1
   874	2	 6.12688	 3.96431	-7.93868	C.1
   875	2	 6.68135	 3.22095	-7.78515	C.1
   876	1	 6.67006	 12.2463	 6.25889	N.3
   877	2	 7.73224	 11.9655	 6.37643	C.1
   878	2	  7.1149	 11.3532	 6.73365	C.1
   879	2	 6.57586	 12.4295	 5.17335	C.1
   880	2	 5.95852	 11.8172	 5.53056	C.1
   881	2	 6.62809	 13.2623	 6.69108	C.1
   882	2	 6.01075	   12.65	  7.0483	C.1
   883	1	 14.9562	-15.4282	-14.0038	N.3
   884	2	  14.489	-14.5484	-13.5257	C.1
   885	2	 15.2906	-14.8397	-13.1305	C.1
   886	2	 15.0372	-15.1264	-15.0637	C.1
   887	2	 15.8388	-15.4176	-14.6685	C.1
   888	2	   14.14	-16.1729	 -14.015	C.1
   889	2	 14.9417	-16.4641	-13.6198	C.1
   890	1	-10.0277	-10.6766	-16.1516	N.3
   891	2	-10.8597	  -10.22	-15.5856	C.1
   892	2	-11.1045	-10.6299	-16.3953	C.1
   893	2	-9.55505	-11.3457	-15.4102	C.1
   894	2	-9.79985	-11.7556	-16.2199	C.1
   895	2	-9.30132	-9.84921	-16.2444	C.1
   896	2	-9.54612	-10.2591	-17.0541	C.1
   897	1	-6.49646	-9.17428	 4.65394	N.3
   898	2	-6.50069	-9.92518	 5.46452	C.1
   899	2	-6.51891	-9.02949	 5.74913	C.1
   900	2	-7.34645	 -9.4831	  4.0191	C.1
   901	2	-7.36466	 -8.5874	 4.30372	C.1
   902	2	-5.61493	 -9.4581	 4.05129	C.1
   903	2	-5.63314	-8.56241	  4.3359	C.1
   904	1	-12.9745	   4.384	-18.9577	N.3
   905	2	-12.4543	 4.90083	-18.1311	C.1
   906	2	-12.4428	 5.35257	-18.9554	C.1
   907	2	-13.9797	  4.1906	-18.5418	C.1
   908	2	-13.9682	 4.64234	 -19.366	C.1
   909	2	-12.5068	 3.38296	-18.9637	C.1
   910	2	-12.4953	  3.8347	 -19.788	C.1
   911	1	-16.2491	 10.5561	-8.88231	N.3
   912	2	-16.4664	 10.1456	-7.87971	C.1
   913	2	-16.8951	 10.9577	 -8.0808	C.1
   914	2	 -16.493	 9.71609	-9.55744	C.1
   915	2	-16.9217	 10.5281	-9.75853	C.1
   916	2	 -15.145	 10.5884	-8.90814	C.1
   917	2	-15.5736	 11.4005	-9.10923	C.1
   918	1	-10.4891	  -13.93	-15.8616	N.3
   919	2	-11.5736	-13.9325	-16.0731	C.1
   920	2	-11.0426	-14.3873	-16.7015	C.1
   921	2	-10.4322	 -14.319	-14.8289	C.1
   922	2	-9.90122	-14.7738	-15.4573	C.1
   923	2	-10.2579	-12.8564	-15.7402	C.1
   924	2	-9.72688	-13.3112	-16.3685	C.1
   925	1	 19.7327	-0.976009	-2.54498	N.3
   926	2	 19.0403	-0.319577	-1.98774	C.1
   927	2	 18.8018	-1.22865	-2.00597	C.1
   928	2	 20.7134	-0.75646	 -2.0858	C.1
   929	2	  20.475	-1.66553	-2.10404	C.1
   930	2	 19.8021	-0.488381	-3.53405	C.1
   931	2	 19.5636	-1.39745	-3.55228	C.1
   932	1	  -9.881	-2.95657	-17.7718	N.3
   933	2	-10.9142	-2.80751	-17.4096	C.1
   934	2	-10.6583	-3.70389	-17.5305	C.1
   935	2	-9.27383	-2.38849	-17.0441	C.1
   936	2	-9.01793	-3.28488	 -17.165	C.1
   937	2	-9.83883	-2.32913	-18.6803	C.1
   938	2	-9.58293	-3.22551	-18.8012	C.1
   939	1	 10.0366	  7.9595	 9.62637	N.3
   940	2	 10.0643	 6.88333	 9.37741	C.1
   941	2	 10.6901	 7.16091	 10.0216	C.1
   942	2	  8.9785	 8.12947	 9.89525	C.1
   943	2	 9.60429	 8.40705	 10.5394	C.1
   944	2	 10.1285	 8.44934	 8.64023	C.1
   945	2	 10.7543	 8.72692	 9.28438	C.1
   946	1	-4.74798	 9.17507	-3.21499	N.3
   947	2	-3.78799	  9.4427	-2.73782	C.1
   948	2	-4.34586	 8.88381	-2.22789	C.1
   949	2	-4.43816	 8.76418	-4.19276	C.1
   950	2	-4.99603	  8.2053	-3.68283	C.1
   951	2	-5.18099	 10.1567	-3.47928	C.1
   952	2	-5.73886	 9.59777	-2.96935	C.1
   953	1	-16.6233	-14.3684	 6.48174	N.3
   954	2	-16.7397	-15.3546	 6.96608	C.1
   955	2	-16.3067	-14.7024	 7.48628	C.1
   956	2	-17.6535	-14.1154	 6.17292	C.1
   957	2	-17.2205	-13.4631	 6.69313	C.1
   958	2	-16.1261	-14.6135	 5.52592	C.1
   959	2	 -15.693	-13.9612	 6.04613	C.1
   960	1	-10.6421	-8.49024	-13.5003	N.3
   961	2	-10.9881	-9.13543	-14.3279	C.1
   962	2	-11.4084	-9.28627	-13.5007	C.1
   963	2	-10.7605	-7.47038	-13.9086	C.1
   964	2	-11.1808	-7.62122	-13.0814	C.1
   965	2	 -9.5472	-8.63864	-13.5051	C.1
   966	2	-9.96748	-8.78948	 -12.678	C.1
   967	1	 6.98482	-19.1102	 5.39026	N.3
   968	2	 6.59543	-20.0126	 4.88544	C.1
   969	2	 6.21476	-19.2009	 4.60306	C.1
   970	2	 8.07733	 -19.192	 5.24675	C.1
   971	2	 7.69666	-18.3803	 4.96437	C.1
   972	2	 6.85272	-19.3435	 6.46216	C.1
   973	2	 6.47205	-18.5317	 6.17977	C.1
   974	1	 7.00963	-14.3048	 17.9463	N.3
   975	2	 7.66338	-15.1699	 18.1586	C.1
   976	2	 6.82782	 -15.185	 18.5889	C.1
   977	2	 6.96939	-14.2835	 16.8423	C.1
   978	2	 6.13382	-14.2986	 17.2726	C.1
   979	2	 7.64946	-13.4382	 18.1924	C.1
   980	2	 6.81389	-13.4534	 18.6227	C.1
   981	1	-17.3294	-5.36832	-17.4664	N.3
   982	2	-17.3956	-4.28409	-17.6689	C.1
   983	2	-17.9713	-4.82234	-18.1812	C.1
   984	2	-17.4766	 -5.4306	-16.3732	C.1
   985	2	-18.0524	-5.96885	-16.8854	C.1
   986	2	-16.2525	-5.58289	-17.5889	C.1
   987	2	-16.8282	-6.12114	-18.1012	C.1
   988	1	 2.57034	 16.6409	 8.92019	N.3
   989	2	 3.41818	 16.0233	 9.26748	C.1
   990	2	 2.72294	 15.5488	 8.84894	C.1
   991	2	 3.05779	   17.41	 8.29429	C.1
   992	2	 2.36255	 16.9356	 7.87575	C.1
   993	2	 2.27792	  17.201	  9.8266	C.1
   994	2	 1.58268	 16.7266	 9.40806	C.1
   995	1	-6.54287	 1.09416	 7.86801	N.3
   996	2	-6.34808	 1.11885	 6.78066	C.1
   997	2	-7.22108	 1.35612	 7.03595	C.1
   998	2	-5.74203	 1.73259	 8.28265	C.1
   999	2	-6.61503	 1.96985	 8.53795	C.1
  1000	2	-6.22901	0.0751539	 8.15778	C.1
  1001	2	-7.10201	0.312421	 8.41308	C.1
  1002	1	 3.83709	-17.2876	-3.33805	N.3
  1003	2	 4.30518	-16.8388	-4.23271	C.1
  1004	2	 3.36651	-16.7954	-4.20823	C.1
  1005	2	 4.35298	-16.7814	-2.50229	C.1
  1006	2	  3.4143	 -16.738	 -2.4778	C.1
  1007	2	 4.26112	-18.3077	-3.31587	C.1
  1008	2	 3.32244	-18.2642	-3.29139	C.1
  1009	1	 7.28944	-7.70723	 4.61754	N.3
  1010	2	 7.75903	-7.03084	 5.35434	C.1
  1011	2	 8.10364	-7.90523	  5.3378	C.1
  1012	2	 7.37942	-7.14855	 3.66852	C.1
  1013	2	 7.72404	-8.02294	 3.65197	C.1
  1014	2	 6.21296	-7.63071	 4.85457	C.1
  1015	2	 6.55757	-8.50511	 4.83802	C.1
  1016	1	  5.1873	 10.6586	-11.8766	N.3
  1017	2	 5.92937	 10.3875	 -12.649	C.1
  1018	2	 5.27905	 11.0096	-12.9203	C.1
  1019	2	 5.81454	 10.9758	 -11.024	C.1
  1020	2	 5.16422	  11.598	-11.2953	C.1
  1021	2	 4.79348	 9.67934	-11.5498	C.1
  1022	2	 4.14315	 10.3015	-11.8211	C.1
  1023	1	  6.6675	-11.5577	 13.5157	N.3
  1024	2	 6.44488	-10.7267	 12.8222	C.1
  1025	2	 5.86156	-11.4617	 12.7659	C.1
  1026	2	 6.70364	-11.0608	 14.5019	C.1
  1027	2	 6.12033	-11.7958	 14.4456	C.1
  1028	2	 7.72895	 -11.783	 13.3073	C.1
  1029	2	 7.14564	 -12.518	  13.251	C.1
  1030	1	-10.9995	 3.43408	-14.7882	N.3
  1031	2	-9.91796	 3.58319	-14.9586	C.1
  1032	2	 -10.441	 3.52414	-15.7374	C.1
  1033	2	-11.2642	 4.26188	-14.1059	C.1
  1034	2	-11.7872	 4.20283	-14.8847	C.1
  1035	2	-11.0317	 2.54575	-14.1319	C.1
  1036	2	-11.5547	  2.4867	-14.9107	C.1
  1037	1	-1.77629	-18.7428	 11.4091	N.3
  1038	2	-0.927072	-18.7383	 10.7022	C.1
  1039	2	-0.770094	-19.1874	 11.5129	C.1
  1040	2	-2.60777	-19.1447	 10.8025	C.1
  1041	2	-2.45079	-19.5938	 11.6132	C.1
  1042	2	 -2.0295	-17.6717	 11.5065	C.1
  1043	2	-1.87252	-18.1208	 12.3172	C.1
  1044	1	-8.78278	 10.1361	 -6.1203	N.3
  1045	2	-7.68705	 10.0742	-6.24852	C.1
  1046	2	-8.12607	 9.24822	-6.15596	C.1
  1047	2	-9.10423	  10.745	-6.98447	C.1
  1048	2	-9.54325	 9.91898	-6.89191	C.1
  1049	2	-8.89853	 10.8281	-5.26674	C.1
  1050	2	-9.33755	 10.0021	-5.17418	C.1
  1051	1	 11.0826	 1.44542	 0.56102	N.3
  1052	2	 10.7831	0.470612	0.135617	C.1
  1053	2	 10.1771	0.841388	0.751159	C.1
  1054	2	 11.2794	 2.06207	-0.334459	C.1
  1055	2	 10.6734	 2.43284	0.281082	C.1
  1056	2	 12.0944	  1.2474	 0.95859	C.1
  1057	2	 11.4884	 1.61818	 1.57413	C.1
  1058	1	-3.22017	 -13.056	-12.3306	N.3
  1059	2	 -2.7116	-13.2249	-11.3643	C.1
  1060	2	-2.41863	-12.4715	 -11.844	C.1
  1061	2	-4.29026	-13.0511	-12.0553	C.1
  1062	2	-3.99728	-12.2977	-12.5351	C.1
  1063	2	-3.09812	-14.0223	-12.8525	C.1
  1064	2	-2.80514	-13.2689	-13.3322	C.1
  1065	1	 17.9755	-11.5053	-16.6024	N.3
  1066	2	 17.0867	-11.6958	-15.9741	C.1
  1067	2	 17.8015	-11.2697	 -15.537	C.1
  1068	2	 17.5605	 -10.958	-17.4679	C.1
  1069	2	 18.2753	-10.5319	-17.0307	C.1
  1070	2	 18.2071	-12.5014	-17.0209	C.1
  1071	2	 18.9219	-12.0753	-16.5837	C.1
  1072	1	-4.07942	-16.2855	0.628811	N.3
  1073	2	-4.71307	-15.8843	-0.182607	C.1
  1074	2	 -4.0116	-16.4439	-0.462623	C.1
  1075	2	-4.81052	-16.7543	 1.31189	C.1
  1076	2	-4.10906	-17.3139	 1.03188	C.1
  1077	2	-3.76688	-15.3786	 1.17717	C.1
  1078	2	-3.06541	-15.9382	0.897153	C.1
  1079	1	-8.39295	-16.1482	 6.54664	N.3
  1080	2	-8.58205	 -17.206	 6.80373	C.1
  1081	2	-9.11942	-16.5821	 7.25714	C.1
  1082	2	-8.48502	-16.1355	 5.44563	C.1
  1083	2	-9.02239	-15.5116	 5.89905	C.1
  1084	2	-7.30571	-16.0389	 6.71044	C.1
  1085	2	-7.84308	 -15.415	 7.16385	C.1
  1086	1	-8.72665	-7.84566	-17.0846	N.3
  1087	2	-9.61101	 -7.4369	-17.6058	C.1
  1088	2	-9.74435	-7.65165	-16.7005	C.1
  1089	2	-7.94664	-7.08729	-17.2778	C.1
  1090	2	-8.07999	-7.30204	-16.3724	C.1
  1091	2	-8.42227	-8.69065	-17.7281	C.1
  1092	2	-8.55561	-8.90541	-16.8228	C.1
  1093	1	 -6.4396	 13.7054	-1.10427	N.3
  1094	2	-7.04598	 13.9283	-2.00067	C.1
  1095	2	-7.50512	  13.493	-1.30544	C.1
  1096	2	-6.00877	  14.688	-0.840073	C.1
  1097	2	 -6.4679	 14.2527	-0.14484	C.1
  1098	2	-5.57536	 13.1529	-1.51491	C.1
  1099	2	-6.03449	 12.7176	-0.819677	C.1
  1100	1	 14.2458	-3.80118	 17.8711	N.3
  1101	2	 14.8441	-3.03745	    18.4	C.1
  1102	2	 14.9946	-3.92382	 18.6743	C.1
  1103	2	 14.4587	-3.59613	 16.8064	C.1
  1104	2	 14.6092	-4.48251	 17.0808	C.1
  1105	2	 13.2089	-3.44039	 17.9953	C.1
  1106	2	 13.3594	-4.32676	 18.2697	C.1
  1107	1	-10.7826	-15.2242	 14.7959	N.3
  1108	2	-9.94619	-14.5042	 14.8511	C.1
  1109	2	-10.2962	-14.7749	 15.6805	C.1
  1110	2	-10.3744	 -16.038	 14.1699	C.1
  1111	2	-10.7244	-16.3087	 14.9992	C.1
  1112	2	-11.5022	-14.7243	 14.1227	C.1
  1113	2	-11.8521	 -14.995	 14.9521	C.1
  1114	1	-3.30373	 10.6465	 10.0801	N.3
  1115	2	-3.09595	 11.4357	  9.3352	C.1
  1116	2	-3.21034	 11.7389	 10.2176	C.1
  1117	2	-2.47221	 9.93415	 9.93194	C.1
  1118	2	-2.58661	 10.2373	 10.8143	C.1
  1119	2	-4.17144	  10.115	 9.64953	C.1
  1120	2	-4.28583	 10.4181	 10.5319	C.1
  1121	1	-13.6033	 4.19618	-5.93675	N.3
  1122	2	-13.7482	 3.82656	-4.90559	C.1
  1123	2	-14.3993	  4.4334	-5.20801	C.1
  1124	2	-13.5161	 3.26699	-6.52823	C.1
  1125	2	-14.1671	 3.87383	-6.83064	C.1
  1126	2	-12.5691	 4.58474	 -5.9228	C.1
  1127	2	-13.2201	 5.19157	-6.22522	C.1
  1128	1	-17.6003	 7.55087	 7.91575	N.3
  1129	2	-17.3617	 8.60821	 8.13025	C.1
  1130	2	-18.1051	 8.47149	 7.57152	C.1
  1131	2	-17.6792	 7.10065	 8.92169	C.1
  1132	2	-18.4227	 6.96394	 8.36296	C.1
  1133	2	-16.6447	 7.14883	  7.5334	C.1
  1134	2	-17.3882	 7.01212	 6.97467	C.1
  1135	1	-4.83246	-0.753862	 6.49015	N.3
  1136	2	-3.77974	-0.494044	  6.7027	C.1
  1137	2	-4.15226	-1.14687	 7.26718	C.1
  1138	2	-4.81648	-1.01455	 5.41654	C.1
  1139	2	  -5.189	-1.66738	 5.98102	C.1
  1140	2	-5.34238	0.226258	 6.50449	C.1
  1141	2	 -5.7149	-0.426573	 7.06897	C.1
  1142	1	-0.548577	-17.9358	-13.0772	N.3
  1143	2	-1.30056	-18.4415	 -12.445	C.1
  1144	2	-1.31669	-17.5022	-12.4116	C.1
  1145	2	-0.723077	-18.3736	-14.0765	C.1
  1146	2	-0.739203	-17.4343	-14.0431	C.1
  1147	2	0.402098	-18.4011	-12.7601	C.1
  1148	2	0.385972	-17.4618	-12.7267	C.1
  1149	1	 8.22881	-11.4671	-10.5594	N.3
  1150	2	  8.8856	-10.8162	-11.1643	C.1
  1151	2	  8.2628	-10.3645	-10.6242	C.1
  1152	2	 8.94308	 -12.111	-10.0154	C.1
  1153	2	 8.32029	-11.6593	-9.47523	C.1
  1154	2	 7.79194	-12.1515	-11.3088	C.1
  1155	2	 7.16915	-11.6998	-10.7687	C.1
  1156	1	0.340626	 15.5315	-0.619047	N.3
  1157	2	-0.10912	 16.5135	-0.386157	C.1
  1158	2	-0.443169	 15.7918	0.114982	C.1
  1159	2	 1.42428	 15.7177	-0.510089	C.1
  1160	2	 1.09023	  14.996	-0.00895034	C.1
  1161	2	0.207795	 15.4458	 -1.7126	C.1
  1162	2	-0.126254	  14.724	-1.21147	C.1
  1163	1	 -7.4082	 15.4272	 4.76276	N.3
  1164	2	-7.72911	 14.3717	 4.82567	C.1
  1165	2	-8.03465	 14.9247	  5.5217	C.1
  1166	2	-7.72742	 15.7282	  3.7487	C.1
  1167	2	-8.03296	 16.2812	 4.44474	C.1
  1168	2	-6.30975	 15.3521	 4.66987	C.1
  1169	2	-6.61529	 15.9051	  5.3659	C.1
  1170	1	 -14.042	 11.2397	-9.26296	N.3
  1171	2	-14.1383	 12.1725	-8.67853	C.1
  1172	2	-13.2571	 11.8741	-8.81301	C.1
  1173	2	-14.6096	 11.4597	-10.1851	C.1
  1174	2	-13.7285	 11.1612	-10.3196	C.1
  1175	2	-14.6999	 10.5346	-8.72357	C.1
  1176	2	-13.8187	 10.2362	-8.85804	C.1
  1177	1	 13.1535	 18.7939	0.190429	N.3
  1178	2	 12.3348	 19.2256	-0.413068	C.1
  1179	2	 12.0608	 18.7445	0.346574	C.1
  1180	2	 13.8031	 19.6641	0.394313	C.1
  1181	2	 13.5291	 19.1831	 1.15395	C.1
  1182	2	 13.7337	 18.2135	-0.549421	C.1
  1183	2	 13.4597	 17.7324	0.210222	C.1
  1184	1	-7.49092	 10.0343	-11.3672	N.3
  1185	2	-6.57708	  10.263	-10.7898	C.1
  1186	2	-7.37138	 10.2374	-10.2877	C.1
  1187	2	-7.23275	 9.09382	-11.8866	C.1
  1188	2	-8.02706	 9.06828	-11.3846	C.1
  1189	2	-7.47148	 10.7843	-12.1783	C.1
  1190	2	-8.26578	 10.7588	-11.6763	C.1
  1191	1	 7.09017	 5.17788	 -17.424	N.3
  1192	2	 7.92224	 4.47034	-17.5912	C.1
  1193	2	 7.64295	 4.94613	-18.3523	C.1
  1194	2	 7.45298	 5.80122	 -16.587	C.1
  1195	2	 7.17369	 6.27702	-17.3481	C.1
  1196	2	 6.31423	 4.54839	-16.9523	C.1
  1197	2	 6.03494	 5.02418	-17.7134	C.1
  1198	1	  14.914	 -4.5128	 10.3817	N.3
  1199	2	 14.4973	-3.63209	 9.86057	C.1
  1200	2	 13.9981	-4.42339	 9.77025	C.1
  1201	2	 15.0436	-4.15464	 11.4189	C.1
  1202	2	 14.5443	-4.94594	 11.3286	C.1
  1203	2	 15.9501	-4.56473	 10.0012	C.1
  1204	2	 15.4508	-5.35604	 9.91085	C.1
  1205	1	 0.61073	 6.27797	-0.156733	N.3
  1206	2	0.168029	 5.76857	0.718149	C.1
  1207	2	 1.07863	 5.98665	0.800923	C.1
  1208	2	-0.0654936	 7.13682	-0.317852	C.1
  1209	2	0.845103	 7.35491	-0.235078	C.1
  1210	2	0.363759	 5.60141	-0.994656	C.1
  1211	2	 1.27436	 5.81949	-0.911883	C.1
  1212	1	0.475448	 8.52331	-17.7362	N.3
  1213	2	-0.149367	 7.97189	-18.4618	C.1
  1214	2	0.764302	  7.7512	 -18.472	C.1
  1215	2	-0.03975	 8.34795	-16.7746	C.1
  1216	2	0.873919	 8.12725	-16.7848	C.1
  1217	2	0.244958	 9.58113	 -17.957	C.1
  1218	2	 1.15863	 9.36044	-17.9672	C.1
  1219	1	 -14.577	 7.33832	-19.1808	N.3
  1220	2	 -13.864	 6.49669	-19.1163	C.1
  1221	2	 -13.532	 7.27092	-19.5334	C.1
  1222	2	-14.9052	 7.47217	-18.1343	C.1
  1223	2	-14.5732	 8.24639	-18.5514	C.1
  1224	2	-15.4599	 6.88475	-19.6663	C.1
  1225	2	-15.1279	 7.65898	-20.0834	C.1
  1226	1	-5.51619	 5.21723	-2.42496	N.3
  1227	2	-4.41308	 5.28062	-2.42114	C.1
  1228	2	 -4.7711	 4.57177	-2.92408	C.1
  1229	2	-5.82611	 6.22704	-2.74915	C.1
  1230	2	-6.18414	 5.51819	-3.25209	C.1
  1231	2	-5.77235	 5.20732	-1.35019	C.1
  1232	2	-6.13038	 4.49846	-1.85312	C.1
  1233	1	 17.5251	 18.4599	 15.0561	N.3
  1234	2	 18.3932	 18.0089	 15.5699	C.1
  1235	2	 17.9139	 17.4267	 15.0087	C.1
  1236	2	 17.9592	 19.3439	 14.5553	C.1
  1237	2	 17.4799	 18.7617	 13.9942	C.1
  1238	2	 16.9418	 18.9001	 15.8849	C.1
  1239	2	 16.4625	 18.3179	 15.3238	C.1
  1240	1	-14.1393	 7.37916	 17.9433	N.3
  1241	2	-14.8665	  6.9487	 17.2314	C.1
  1242	2	-14.2422	  7.5423	 16.8553	C.1
  1243	2	-13.7055	 6.48776	 18.4312	C.1
  1244	2	-13.0812	 7.08136	 18.0551	C.1
  1245	2	-14.7824	 7.81062	 18.7314	C.1
  1246	2	-14.1581	 8.40422	 18.3553	C.1
  1247	1	-16.7296	-18.5805	 15.6564	N.3
  1248	2	   -16.1	 -19.336	 15.1527	C.1
  1249	2	-16.5758	-18.7644	 14.5778	C.1
  1250	2	-16.0221	-18.0772	 16.3397	C.1
  1251	2	-16.4978	-17.5056	 15.7648	C.1
  1252	2	-17.3529	-19.1856	 16.3391	C.1
  1253	2	-17.8287	 -18.614	 15.7642	C.1
  1254	1	 6.40017	-13.1388	-7.50865	N.3
  1255	2	 6.90344	-12.1595	-7.41597	C.1
  1256	2	  7.4645	-12.8769	 -7.6485	C.1
  1257	2	 5.57922	-12.9346	-8.21944	C.1
  1258	2	 6.14027	-13.6521	-8.45197	C.1
  1259	2	 5.87627	 -13.246	-6.54176	C.1
  1260	2	 6.43732	-13.9635	-6.77429	C.1
  1261	1	-4.60899	 17.8094	-8.88122	N.3
  1262	2	-5.47656	 17.3972	-8.33503	C.1
  1263	2	-5.39859	 17.1194	-9.22967	C.1
  1264	2	-3.75419	  17.548	-8.23173	C.1
  1265	2	-3.67622	 17.2702	-9.12637	C.1
  1266	2	-4.71316	 18.8996	-8.73495	C.1
  1267	2	-4.63519	 18.6219	-9.62959	C.1
  1268	1	  -6.753	-5.35854	-6.98363	N.3
  1269	2	-7.38949	-6.25142	-6.84743	C.1
  1270	2	-7.79982	-5.43212	-6.63772	C.1
  1271	2	-6.40232	-5.45509	-8.02697	C.1
  1272	2	-6.81265	-4.63579	-7.81726	C.1
  1273	2	 -5.8517	-5.59805	-6.39106	C.1
  1274	2	-6.26203	-4.77876	-6.18135	C.1
  1275	1	 18.9429	 17.5047	 13.3043	N.3
  1276	2	 19.4289	 18.4896	 13.1838	C.1
  1277	2	 19.8984	 17.8747	 13.7177	C.1
  1278	2	  18.764	 17.1822	 12.2627	C.1
  1279	2	 19.2334	 16.5673	 12.7966	C.1
  1280	2	 17.9315	 17.7646	 13.6654	C.1
  1281	2	  18.401	 17.1497	 14.1994	C.1
  1282	1	 9.40802	-14.1067	 14.2279	N.3
  1283	2	 8.31449	-14.2237	 14.3347	C.1
  1284	2	 8.61555	 -13.337	 14.2521	C.1
  1285	2	 9.65069	-14.7667	 13.3757	C.1
  1286	2	 9.95174	-13.8801	 13.2931	C.1
  1287	2	 9.80729	-14.6595	 15.0973	C.1
  1288	2	 10.1084	-13.7729	 15.0146	C.1
  1289	1	-8.53752	-3.43737	  -3.125	N.3
  1290	2	-8.44701	-2.45684	-3.62626	C.1
  1291	2	-8.65034	-2.41985	-2.70926	C.1
  1292	2	-7.58483	-3.93793	-3.37535	C.1
  1293	2	-7.78816	-3.90095	-2.45835	C.1
  1294	2	-9.27572	-3.97281	-3.74887	C.1
  1295	2	-9.47905	-3.93582	-2.83187	C.1
  1296	1	 16.0187	-2.25277	 9.96953	N.3
  1297	2	 15.3577	-3.05584	 9.59669	C.1
  1298	2	 15.8627	-3.27512	 10.3586	C.1
  1299	2	 15.3315	-1.39627	 10.0917	C.1
  1300	2	 15.8365	-1.61555	 10.8536	C.1
  1301	2	 16.6095	-1.97727	 9.07735	C.1
  1302	2	 17.1145	-2.19655	 9.83922	C.1
  1303	1	 -6.7363	-10.1286	 7.70721	N.3
  1304	2	-6.74558	-9.86051	 8.77911	C.1
  1305	2	-5.90518	 -10.103	 8.43487	C.1
  1306	2	-7.20746	-9.25371	 7.22399	C.1
  1307	2	-6.36706	-9.49624	 6.87975	C.1
  1308	2	-7.51646	-10.9076	  7.6349	C.1
  1309	2	-6.67606	-11.1502	 7.29066	C.1
  1310	1	-17.9641	  19.081	 -18.403	N.3
  1311	2	-17.6172	 18.8754	-19.4317	C.1
  1312	2	-18.5463	 18.9822	-19.3369	C.1
  1313	2	-17.3575	 19.9539	-18.1016	C.1
  1314	2	-18.2866	 20.0607	-18.0068	C.1
  1315	2	-17.5239	 18.2535	-17.8179	C.1
  1316	2	 -18.453	 18.3602	-17.7231	C.1
  1317	1	 -16.147	-4.64096	-11.7201	N.3
  1318	2	-17.0626	-5.14259	 -12.082	C.1
  1319	2	-17.2009	-4.47995	-11.4298	C.1
  1320	2	 -15.666	-4.29087	-12.6512	C.1
  1321	2	-15.8043	-3.62823	 -11.999	C.1
  1322	2	 -15.505	-5.48338	-11.4055	C.1
  1323	2	-15.6433	-4.82074	-10.7533	C.1
  1324	1	-4.78745	 19.6555	-16.6826	N.3
  1325	2	-5.19519	 20.4439	-17.3407	C.1
  1326	2	-5.48592	 20.4787	-16.4474	C.1
  1327	2	-3.69562	 19.7469	-16.8254	C.1
  1328	2	-3.98635	 19.7817	-15.9322	C.1
  1329	2	-5.03545	 18.7234	-17.2217	C.1
  1330	2	-5.32618	 18.7581	-16.3285	C.1
  1331	1	 13.3175	-16.2839	0.870829	N.3
  1332	2	 12.8212	-16.1935	-0.112247	C.1
  1333	2	 13.1232	-17.0567	0.105356	C.1
  1334	2	 12.5755	-15.8558	 1.56867	C.1
  1335	2	 12.8775	-16.7189	 1.78627	C.1
  1336	2	 14.1028	-15.5077	0.829661	C.1
  1337	2	 14.4048	-16.3708	 1.04726	C.1
  1338	1	-10.0764	 16.3429	-16.5829	N.3
  1339	2	-11.0719	 16.6913	-16.2536	C.1
  1340	2	-10.3603	 17.2746	-16.0612	C.1
  1341	2	-10.2275	 16.1236	-17.6553	C.1
  1342	2	-9.51593	 16.7069	-17.4628	C.1
  1343	2	-9.99716	 15.3388	-16.1285	C.1
  1344	2	-9.28556	 15.9221	-15.9361	C.1
  1345	1	 18.1053	-4.29901	-19.7718	N.3
  1346	2	 18.8914	-3.85658	-20.4099	C.1
  1347	2	 18.9707	-3.67176	-19.4917	C.1
  1348	2	 18.1356	-5.37048	-20.0399	C.1
  1349	2	  18.215	-5.18567	-19.1217	C.1
  1350	2	 17.1698	 -3.9472	-20.2429	C.1
  1351	2	 17.2491	-3.76238	-19.3247	C.1
  1352	1	 3.91877	 7.92053	-7.12936	N.3
  1353	2	 4.97337	 7.60378	-7.03776	C.1
  1354	2	  4.8126	 8.51351	-6.86412	C.1
  1355	2	 3.38462	 7.21433	-6.46843	C.1
  1356	2	 3.22384	 8.12406	-6.29479	C.1
  1357	2	 3.63949	 7.57888	-8.14234	C.1
  1358	2	 3.47872	  8.4886	 -7.9687	C.1
  1359	1	 16.2017	 9.21487	-6.32978	N.3
  1360	2	 16.2183	 9.15566	-7.43301	C.1
  1361	2	 16.8434	 8.60806	-6.99375	C.1
  1362	2	  15.144	 9.01308	-6.08189	C.1
  1363	2	 15.7691	 8.46549	-5.64262	C.1
  1364	2	 16.3051	 10.2973	-6.13333	C.1
  1365	2	 16.9302	 9.74967	-5.69407	C.1
  1366	1	-14.5021	-2.50388	  8.3433	N.3
  1367	2	-15.4718	-1.98585	 8.45364	C.1
  1368	2	-15.3067	-2.34816	 7.60214	C.1
  1369	2	-14.5107	-3.23509	 9.17162	C.1
  1370	2	-14.3455	 -3.5974	 8.32012	C.1
  1371	2	-13.7716	-1.74723	  8.6819	C.1
  1372	2	-13.6064	-2.10954	 7.83039	C.1
  1373	1	-4.23278	-1.54487	 -15.637	N.3
  1374	2	-4.04246	-0.737555	 -14.907	C.1
  1375	2	 -3.3322	-0.920645	-15.4949	C.1
  1376	2	-5.17474	-1.23045	-16.1215	C.1
  1377	2	-4.46447	-1.41354	-16.7094	C.1
  1378	2	-4.54653	-2.39197	-15.0007	C.1
  1379	2	-3.83627	-2.57506	-15.5886	C.1
  1380	1	 11.8722	-12.9543	-18.1348	N.3
  1381	2	 12.0302	-13.2899	-19.1756	C.1
  1382	2	 12.0715	-12.3599	-19.0446	C.1
  1383	2	 12.6133	-13.5427	-17.5644	C.1
  1384	2	 12.6547	-12.6128	-17.4334	C.1
  1385	2	 10.9109	-13.4253	-17.8607	C.1
  1386	2	 10.9523	-12.4954	-17.7298	C.1
  1387	1	 -1.8554	 5.04402	-11.1603	N.3
  1388	2	-2.29834	 5.85229	-11.7698	C.1
  1389	2	-1.39867	 5.98008	-11.5292	C.1
  1390	2	-2.05782	 4.13707	-11.7581	C.1
  1391	2	-1.15815	 4.26487	-11.5176	C.1
  1392	2	-2.55956	 4.95102	 -10.314	C.1
  1393	2	-1.65989	 5.07881	-10.0734	C.1
  1394	1	-3.61952	-13.2909	   12.76	N.3
  1395	2	-3.87652	-14.3405	 12.5291	C.1
  1396	2	-4.48538	-13.8936	 13.0887	C.1
  1397	2	-3.48038	-12.8393	 11.7613	C.1
  1398	2	-4.08925	-12.3924	 12.3209	C.1
  1399	2	-2.58837	-13.3634	 13.1503	C.1
  1400	2	-3.19723	-12.9165	   13.71	C.1
  1401	1	 7.84126	-1.05295	 -15.981	N.3
  1402	2	 8.69271	-1.75419	-15.9161	C.1
  1403	2	 8.66997	-1.09024	-15.2511	C.1
  1404	2	 6.96329	-1.72331	-16.0061	C.1
  1405	2	 6.94054	-1.05937	-15.3411	C.1
  1406	2	 7.90191	-0.67728	-17.0184	C.1
  1407	2	 7.87917	-0.0133337	-16.3533	C.1
  1408	1	 8.87052	-9.38348	-18.5213	N.3
  1409	2	 8.74346	-9.00863	-17.4897	C.1
  1410	2	  9.5493	-8.76433	-17.9075	C.1
  1411	2	 7.95321	-9.03715	-19.0307	C.1
  1412	2	 8.75905	-8.79285	-19.4485	C.1
  1413	2	 8.70613	-10.4711	-18.4169	C.1
  1414	2	 9.51197	-10.2268	-18.8347	C.1
  1415	1	 14.2953	 7.82861	 12.8523	N.3
  1416	2	 13.9495	  6.9753	 12.2414	C.1
  1417	2	 14.5471	 6.75577	  12.933	C.1
  1418	2	 13.3528	 8.30393	 13.1788	C.1
  1419	2	 13.9504	 8.08439	 13.8704	C.1
  1420	2	 14.6873	 8.53591	 12.0994	C.1
  1421	2	 15.2848	 8.31637	 12.7909	C.1
  1422	1	-13.5701	 6.62327	 1.42601	N.3
  1423	2	-13.4208	 6.77985	0.342447	C.1
  1424	2	-12.8264	 7.24852	0.899787	C.1
  1425	2	-13.5423	 5.52346	 1.52849	C.1
  1426	2	-12.9479	 5.99213	 2.08583	C.1
  1427	2	-14.6388	  6.8635	 1.57107	C.1
  1428	2	-14.0444	 7.33217	 2.12841	C.1
  1429	1	 7.49372	-4.52943	 8.09682	N.3
  1430	2	 6.44642	-4.77799	 7.84723	C.1
  1431	2	 6.78815	-5.20695	 8.61066	C.1
  1432	2	 7.48762	-3.42541	 8.14118	C.1
  1433	2	 7.82934	-3.85438	  8.9046	C.1
  1434	2	 8.03452	-4.74144	  7.1569	C.1
  1435	2	 8.37625	 -5.1704	 7.92032	C.1
  1436	1	 5.64864	 7.29453	 11.9162	N.3
  1437	2	 4.86772	 7.79477	 11.3155	C.1
  1438	2	 4.56307	 7.09514	 11.8644	C.1
  1439	2	 6.13337	 8.13264	 12.4486	C.1
  1440	2	 5.82872	 7.43301	 12.9975	C.1
  1441	2	 6.40179	 7.00564	 11.1611	C.1
  1442	2	 6.09714	   6.306	   11.71	C.1
  1443	1	-16.2182	 4.19424	-11.6098	N.3
  1444	2	-16.2732	 3.80043	-10.5789	C.1
  1445	2	-15.4067	  3.9948	-10.8869	C.1
  1446	2	-16.9135	 5.05278	-11.5897	C.1
  1447	2	-16.0469	 5.24714	-11.8977	C.1
  1448	2	-16.7678	 3.43796	-12.1988	C.1
  1449	2	-15.9012	 3.63233	-12.5068	C.1
  1450	1	-6.13322	-3.37301	-12.3528	N.3
  1451	2	 -5.5613	-2.43282	 -12.452	C.1
  1452	2	-6.21448	-2.57515	-13.1129	C.1
  1453	2	-6.51471	-3.32846	-11.3168	C.1
  1454	2	-7.16788	-3.47078	-11.9776	C.1
  1455	2	-5.34389	-4.14427	-12.2983	C.1
  1456	2	-5.99707	 -4.2866	-12.9592	C.1
  1457	1	 8.95215	 14.0224	 18.8634	N.3
  1458	2	 9.59252	 14.4536	 18.0729	C.1
  1459	2	 9.58783	 13.5146	 18.1157	C.1
  1460	2	 7.96867	 14.4892	 18.6744	C.1
  1461	2	 7.96397	 13.5501	 18.7172	C.1
  1462	2	 9.30231	 14.5329	 19.7786	C.1
  1463	2	 9.29762	 13.5939	 19.8214	C.1
  1464	1	 19.3782	-10.0829	 -17.552	N.3
  1465	2	 19.8909	-10.3986	-16.6256	C.1
  1466	2	 19.6439	-9.49221	-16.6568	C.1
  1467	2	 18.5425	-10.8009	-17.6355	C.1
  1468	2	 18.2955	-9.89445	-17.6667	C.1
  1469	2	 20.0716	-10.4088	-18.3482	C.1
  1470	2	 19.8246	-9.50235	-18.3794	C.1
  1471	1	 3.10788	0.535539	-3.01307	N.3
  1472	2	 2.91871	 1.62351	-3.05096	C.1
  1473	2	 2.56508	 1.18209	-2.30016	C.1
  1474	2	 4.20482	 0.46581	-3.12585	C.1
  1475	2	 3.85119	0.0243926	-2.37505	C.1
  1476	2	 2.73056	0.179424	 -3.9886	C.1
  1477	2	 2.37693	-0.261994	 -3.2378	C.1
  1478	1	-10.6073	-2.35529	 -14.924	N.3
  1479	2	-9.91505	-1.71389	-14.3492	C.1
  1480	2	-9.55388	-2.53134	-14.6407	C.1
  1481	2	-10.9636	 -1.6858	-15.7275	C.1
  1482	2	-10.6025	-2.50325	-16.0189	C.1
  1483	2	-11.4849	-2.43999	 -14.258	C.1
  1484	2	-11.1237	-3.25744	-14.5495	C.1
  1485	1	 10.6647	 4.16972	 17.3431	N.3
  1486	2	 10.1386	 3.22202	 17.1288	C.1
  1487	2	 10.6731	 3.21659	  17.902	C.1
  1488	2	 9.85078	 4.91692	 17.3397	C.1
  1489	2	 10.3853	 4.91149	 18.1129	C.1
  1490	2	 11.2031	 4.37836	  16.401	C.1
  1491	2	 11.7376	 4.37292	 17.1742	C.1
  1492	1	-0.0256581	  -2.306	 4.22044	N.3
  1493	2	0.505137	-3.10868	 4.76346	C.1
  1494	2	 1.03203	 -2.3646	  4.5347	C.1
  1495	2	-0.889301	-2.08727	 4.87399	C.1
  1496	2	-0.362406	-1.34319	 4.64523	C.1
  1497	2	-0.483153	-2.83818	 3.36701	C.1
  1498	2	0.043742	 -2.0941	 3.13825	C.1
  1499	1	 -18.427	-14.1774	-1.09847	N.3
  1500	2	-19.2076	-14.4503	-1.83125	C.1
  1501	2	 -19.523	-14.2365	-0.971932	C.1
  1502	2	-17.8718	-13.3703	-1.60959	C.1
  1503	2	-18.1872	-13.1566	-0.750268	C.1
  1504	2	-17.7284	-15.0323	-1.14354	C.1
  1505	2	-18.0438	-14.8185	-0.284219	C.1
  1506	1	 11.3286	   13.14	 9.26764	N.3
  1507	2	 12.2166	 12.5315	 9.51667	C.1
  1508	2	 11.4546	 12.0422	 9.26477	C.1
  1509	2	 11.7095	 13.8424	 8.50456	C.1
  1510	2	 10.9475	 13.3531	 8.25266	C.1
  1511	2	 11.2026	 13.7799	 10.1595	C.1
  1512	2	 10.4405	 13.2906	 9.90763	C.1
  1513	1	-10.5384	-18.7388	 13.6353	N.3
  1514	2	-10.1783	-19.1316	 14.6032	C.1
  1515	2	-10.8785	-18.5072	 14.6607	C.1
  1516	2	 -10.771	-19.6543	  13.062	C.1
  1517	2	-11.4712	-19.0298	 13.1194	C.1
  1518	2	 -9.6156	-18.3673	 13.1544	C.1
  1519	2	-10.3158	-17.7428	 13.2119	C.1
  1520	1	 -11.378	-3.45086	 14.4084	N.3
  1521	2	-11.6882	-2.87728	 13.5163	C.1
  1522	2	 -10.828	-2.67944	 13.8397	C.1
  1523	2	-11.5345	-4.50049	 14.1008	C.1
  1524	2	-10.6744	-4.30265	 14.4241	C.1
  1525	2	-12.2015	-3.27157	 15.1229	C.1
  1526	2	-11.3413	-3.07373	 15.4463	C.1
  1527	1	-3.52757	 5.53918	-13.4275	N.3
  1528	2	-4.29157	 6.33608	-13.3812	C.1
  1529	2	-4.20405	 5.91415	-14.2166	C.1
  1530	2	-3.80653	 4.87289	-12.5914	C.1
  1531	2	-3.71901	 4.45096	-13.4268	C.1
  1532	2	-2.61588	 6.04145	-13.0568	C.1
  1533	2	-2.52836	 5.61953	-13.8922	C.1
  1534	1	-1.44581	 2.42057	-18.8027	N.3
  1535	2	-0.637334	 2.31544	-18.0569	C.1
  1536	2	-1.07896	 1.51706	-18.2831	C.1
  1537	2	-0.948371	 2.93696	-19.6434	C.1
  1538	2	   -1.39	 2.13858	-19.8696	C.1
  1539	2	-2.08929	 3.20688	-18.3685	C.1
  1540	2	-2.53092	  2.4085	-18.5947	C.1
  1541	1	-19.4321	 1.14192	0.264918	N.3
  1542	2	  -20.42	  1.0393	0.749159	C.1
  1543	2	-19.7186	0.575555	 1.16939	C.1
  1544	2	-19.2971	 2.23639	0.195988	C.1
  1545	2	-18.5957	 1.77265	0.616217	C.1
  1546	2	-19.6314	0.845681	-0.780736	C.1
  1547	2	  -18.93	0.381939	-0.360507	C.1
  1548	1	 12.4457	 3.31018	-12.0066	N.3
  1549	2	 11.4775	  3.8278	-12.1316	C.1
  1550	2	 12.2306	  4.3147	-12.4135	C.1
  1551	2	 12.2866	 2.34805	-12.5261	C.1
  1552	2	 13.0397	 2.83494	 -12.808	C.1
  1553	2	 12.4434	 3.02435	-10.9393	C.1
  1554	2	 13.1964	 3.51125	-11.2212	C.1
  1555	1	-8.13805	 5.11909	  13.309	N.3
  1556	2	-7.19674	 4.56263	 13.4677	C.1
  1557	2	-7.89516	 4.06524	 13.0825	C.1
  1558	2	-7.81465	  6.0023	 12.7291	C.1
  1559	2	-8.51307	 5.50491	 12.3439	C.1
  1560	2	-8.35512	 5.53843	 14.3079	C.1
  1561	2	-9.05354	 5.04103	 13.9227	C.1
  1562	1	 10.0171	 16.6896	-3.78526	N.3
  1563	2	 10.2948	 17.4827	-4.50273	C.1
  1564	2	 9.44239	 17.5731	-4.11701	C.1
  1565	2	 10.8592	   16.69	-3.06985	C.1
  1566	2	 10.0067	 16.7804	-2.68413	C.1
  1567	2	  10.176	 15.7605	-4.36179	C.1
  1568	2	 9.32357	 15.8509	-3.97607	C.1
  1569	1	-14.8801	-13.6608	 7.15478	N.3
  1570	2	-13.8638	-13.3553	 7.46263	C.1
  1571	2	-14.5156	-12.6795	  7.5084	C.1
  1572	2	-15.0782	-14.5481	  7.7827	C.1
  1573	2	-15.7299	-13.8723	 7.82847	C.1
  1574	2	-14.7206	-14.0927	 6.15035	C.1
  1575	2	-15.3724	-13.4169	 6.19612	C.1
  1576	1	 14.3367	-0.132415	 10.0947	N.3
  1577	2	 15.4219	-0.316509	 10.1905	C.1
  1578	2	 15.1857	0.555495	 9.93086	C.1
  1579	2	 13.9383	-0.455659	 11.0733	C.1
  1580	2	  13.702	0.416344	 10.8137	C.1
  1581	2	 14.0041	-0.933084	 9.40967	C.1
  1582	2	 13.7679	-0.0610802	 9.15007	C.1
  1583	1	 -10.434	 10.5714	 15.4282	N.3
  1584	2	-9.43847	 10.2644	 15.7963	C.1
  1585	2	 -9.5213	 10.3136	 14.8613	C.1
  1586	2	-10.6219	 11.5175	 15.9671	C.1
  1587	2	-10.7047	 11.5667	 15.0321	C.1
  1588	2	-11.1175	 9.85844	 15.9237	C.1
  1589	2	-11.2003	 9.90768	 14.9886	C.1
  1590	1	-3.39308	-11.4025	 3.91191	N.3
  1591	2	-4.44926	-11.3532	 4.23273	C.1
  1592	2	-3.81774	-11.3054	 4.92736	C.1
  1593	2	-3.32112	-10.6005	 3.15536	C.1
  1594	2	 -2.6896	-10.5528	 3.84998	C.1
  1595	2	-3.35612	-12.3256	 3.30571	C.1
  1596	2	 -2.7246	-12.2779	 4.00034	C.1
  1597	1	 15.2328	 4.09614	-18.5575	N.3
  1598	2	 15.1068	 3.22192	-19.2214	C.1
  1599	2	 14.3333	 3.73987	-19.0912	C.1
  1600	2	 16.0879	 4.63303	-19.0062	C.1
  1601	2	 15.3143	 5.15098	-18.8761	C.1
  1602	2	 15.6639	 3.65653	  -17.64	C.1
  1603	2	 14.8904	 4.17448	-17.5099	C.1
  1604	1	 14.6818	  9.1182	 6.73443	N.3
  1605	2	 15.6879	 9.00414	 6.29207	C.1
  1606	2	 15.6216	 9.64752	 6.97417	C.1
  1607	2	  14.419	 8.08747	  7.0334	C.1
  1608	2	 14.3527	 8.73085	 7.71551	C.1
  1609	2	  14.038	 9.29792	 5.85466	C.1
  1610	2	 13.9717	  9.9413	 6.53677	C.1
  1611	1	 9.20189	-4.48577	 12.8827	N.3
  1612	2	 8.61437	 -3.5503	 12.9076	C.1
  1613	2	 9.08976	-3.74497	 13.6948	C.1
  1614	2	 9.82202	-4.37051	 11.9755	C.1
  1615	2	 10.2974	-4.56518	 12.7627	C.1
  1616	2	 8.45619	-5.24451	 12.5842	C.1
  1617	2	 8.93158	-5.43917	 13.3714	C.1
  1618	1	-2.42709	 10.5754	 15.8877	N.3
  1619	2	-2.66176	 11.1082	 14.9486	C.1
  1620	2	-3.40614	 10.7749	  15.416	C.1
  1621	2	-1.81039	  11.304	 16.4442	C.1
  1622	2	-2.55477	 10.9707	 16.9116	C.1
  1623	2	-1.69254	 9.81386	 15.5693	C.1
  1624	2	-2.43691	 9.48057	 16.0366	C.1
  1625	1	 -11.955	 11.2429	-13.7823	N.3
  1626	2	-12.2904	 10.3694	-13.1946	C.1
  1627	2	-12.8398	 10.5962	-13.9228	C.1
  1628	2	 -10.912	  10.987	-14.0422	C.1
  1629	2	-11.4614	 11.2138	-14.7704	C.1
  1630	2	-11.8384	  12.032	-13.0178	C.1
  1631	2	-12.3878	 12.2588	 -13.746	C.1
  1632	1	  19.503	0.535382	 17.9918	N.3
  1633	2	 19.9317	0.172794	 18.9435	C.1
  1634	2	 20.1723	-0.322927	  18.182	C.1
  1635	2	 19.7971	 1.60024	 17.9718	C.1
  1636	2	 20.0378	 1.10452	 17.2102	C.1
  1637	2	 18.4191	 0.57669	 18.2025	C.1
  1638	2	 18.6598	0.0809691	  17.441	C.1
  1639	1	 19.9662	 1.90949	-10.1219	N.3
  1640	2	 19.7188	 1.24239	-9.27651	C.1
  1641	2	 20.3793	0.918283	-9.86156	C.1
  1642	2	 20.2065	 2.86718	-9.62598	C.1
  1643	2	  20.867	 2.54308	 -10.211	C.1
  1644	2	 18.9825	 2.10504	-10.5856	C.1
  1645	2	  19.643	 1.78094	-11.1707	C.1
  1646	1	-14.4308	 9.37574	-3.03939	N.3
  1647	2	-14.4968	 8.79375	-2.10246	C.1
  1648	2	-15.2232	 8.68953	-2.68996	C.1
  1649	2	 -13.448	 9.08219	-3.45033	C.1
  1650	2	-14.1744	 8.97796	-4.03783	C.1
  1651	2	-14.2579	 10.4076	-2.68412	C.1
  1652	2	-14.9843	 10.3034	-3.27161	C.1
  1653	1	 10.4967	  6.1059	-1.91232	N.3
  1654	2	 9.74768	 5.33996	-2.18274	C.1
  1655	2	 9.89293	 6.00395	-2.83206	C.1
  1656	2	 11.3859	  5.5066	-1.64585	C.1
  1657	2	 11.5312	  6.1706	-2.29516	C.1
  1658	2	 10.1387	 6.47515	-0.934399	C.1
  1659	2	  10.284	 7.13915	-1.58371	C.1
  1660	1	 12.5575	-6.83403	-19.7071	N.3
  1661	2	 12.1537	-6.95812	-18.6861	C.1
  1662	2	 12.4166	-7.75402	-19.1115	C.1
  1663	2	 13.3595	-6.08602	-19.5723	C.1
  1664	2	 13.6225	-6.88192	-19.9977	C.1
  1665	2	  11.765	-6.26411	-20.2247	C.1
  1666	2	 12.0279	-7.06001	-20.6501	C.1
  1667	1	 12.3349	-0.910161	-15.5315	N.3
  1668	2	 11.2554	-0.835989	-15.3075	C.1
  1669	2	 11.4794	-1.42468	-16.0052	C.1
  1670	2	 12.7805	-1.15339	-14.5501	C.1
  1671	2	 13.0044	-1.74208	-15.2479	C.1
  1672	2	 12.6328	0.141929	-15.6904	C.1
  1673	2	 12.8568	-0.44676	-16.3881	C.1
  1674	1	 6.02522	-0.185177	-16.8847	N.3
  1675	2	 5.84601	-1.15462	-17.3836	C.1
  1676	2	 6.20133	-0.480993	-17.9346	C.1
  1677	2	 6.65009	-0.459977	-16.0158	C.1
  1678	2	 7.00541	 0.21365	-16.5668	C.1
  1679	2	  5.0466	0.0486251	-16.4281	C.1
  1680	2	 5.40191	0.722252	-16.9791	C.1
  1681	1	-13.0598	-4.59536	 15.6262	N.3
  1682	2	-13.3956	-4.02619	 14.7406	C.1
  1683	2	-13.4786	-3.57495	 15.5611	C.1
  1684	2	-12.0313	-4.89681	 15.3576	C.1
  1685	2	-12.1143	-4.44558	  16.178	C.1
  1686	2	-13.6279	-5.53993	 15.5497	C.1
  1687	2	 -13.711	 -5.0887	 16.3701	C.1
  1688	1	 5.72539	 17.1545	 -5.6528	N.3
  1689	2	 4.86211	  17.054	-4.97048	C.1
  1690	2	   5.698	 16.8539	-4.58988	C.1
  1691	2	 5.62063	 18.1829	-6.04288	C.1
  1692	2	 6.45651	 17.9829	-5.66228	C.1
  1693	2	 5.43959	 16.5266	-6.51593	C.1
  1694	2	 6.27548	 16.3266	-6.13532	C.1
  1695	1	 8.46024	 14.8813	-4.32236	N.3
  1696	2	 7.57558	 15.1209	 -4.9395	C.1
  1697	2	 8.31532	 14.7869	-5.41368	C.1
  1698	2	  8.0532	  14.205	-3.54924	C.1
  1699	2	 8.79294	  13.871	-4.02342	C.1
  1700	2	 8.64234	  15.819	-3.76706	C.1
  1701	2	 9.38207	 15.4851	-4.24124	C.1
  1702	1	0.219313	0.260273	 5.01679	N.3
  1703	2	 1.24995	-0.0656999	 4.78782	C.1
  1704	2	  1.1517	0.851306	 4.96961	C.1
  1705	2	-0.083476	-0.416381	 5.83613	C.1
  1706	2	-0.181723	0.500625	 6.01792	C.1
  1707	2	-0.361165	-0.11261	 4.15374	C.1
  1708	2	-0.459412	0.804396	 4.33553	C.1
  1709	1	-2.47004	-5.88176	 9.35174	N.3
  1710	2	-1.56638	-5.89292	   8.716	C.1
  1711	2	-2.34099	-5.55561	 8.30394	C.1
  1712	2	-2.13911	-5.33243	 10.2515	C.1
  1713	2	-2.91372	-4.99511	 9.83945	C.1
  1714	2	-2.54271	-6.92589	 9.70579	C.1
  1715	2	-3.31733	-6.58858	 9.29374	C.1
  1716	1	-19.7884	-10.8741	 18.5878	N.3
  1717	2	-18.8109	-11.1944	 18.1843	C.1
  1718	2	-18.9042	 -11.274	 19.1162	C.1
  1719	2	-20.5118	-11.4588	 17.9914	C.1
  1720	2	-20.6051	-11.5383	 18.9234	C.1
  1721	2	-19.9025	-9.84966	 18.1897	C.1
  1722	2	-19.9958	 -9.9292	 19.1217	C.1
  1723	1	 3.83256	-18.2756	 12.3204	N.3
  1724	2	 3.93248	-19.1287	 13.0155	C.1
  1725	2	 4.02537	-18.2798	 13.4084	C.1
  1726	2	 2.86055	-18.4624	 11.8294	C.1
  1727	2	 2.95344	-17.6135	 12.2223	C.1
  1728	2	 4.56533	 -18.509	 11.5271	C.1
  1729	2	 4.65822	-17.6601	   11.92	C.1
  1730	1	-19.0664	-13.6519	 -3.5277	N.3
  1731	2	-19.9698	-13.0382	-3.35977	C.1
  1732	2	-19.1942	-12.5557	-3.58152	C.1
  1733	2	-19.3964	-14.3852	-4.28546	C.1
  1734	2	-18.6208	-13.9026	 -4.5072	C.1
  1735	2	-18.9964	-14.2561	-2.60525	C.1
  1736	2	-18.2208	-13.7735	-2.82699	C.1
  1737	1	 3.41608	-9.05352	 8.95626	N.3
  1738	2	 4.41521	-9.50987	 9.07624	C.1
  1739	2	 4.41008	-8.65671	 8.68165	C.1
  1740	2	 2.99195	-9.10258	 9.97536	C.1
  1741	2	 2.98682	-8.24942	 9.58078	C.1
  1742	2	 2.84877	-9.82785	 8.40906	C.1
  1743	2	 2.84365	-8.97469	 8.01447	C.1
  1744	1	-17.7777	 12.4306	-14.1343	N.3
  1745	2	-17.8236	 11.9443	-15.1255	C.1
  1746	2	-18.6057	 11.8737	-14.6088	C.1
  1747	2	-17.4642	 13.4628	-14.3737	C.1
  1748	2	-18.2463	 13.3921	 -13.857	C.1
  1749	2	-16.8722	 11.9908	-13.6789	C.1
  1750	2	-17.6543	 11.9201	-13.1622	C.1
  1751	1	 16.4332	-6.90343	 6.21033	N.3
  1752	2	 17.1194	-6.06964	 6.44448	C.1
  1753	2	 16.9519	-6.66136	 7.15541	C.1
  1754	2	 16.8894	-7.36209	 5.31459	C.1
  1755	2	  16.722	-7.95381	 6.02553	C.1
  1756	2	 15.5419	-6.39098	  5.8055	C.1
  1757	2	 15.3745	 -6.9827	 6.51644	C.1
  1758	1	 11.4965	-10.0465	-3.77393	N.3
  1759	2	 11.2466	-10.7205	 -2.9348	C.1
  1760	2	 11.4779	-11.1507	-3.73794	C.1
  1761	2	 12.2793	-9.39297	-3.34848	C.1
  1762	2	 12.5106	-9.82315	-4.15163	C.1
  1763	2	 10.6167	 -9.3808	-3.83381	C.1
  1764	2	  10.848	-9.81098	-4.63695	C.1
  1765	1	 16.7231	 16.4472	-10.8666	N.3
  1766	2	  16.868	 16.9769	-11.8254	C.1
  1767	2	  17.156	 17.4447	-11.0626	C.1
  1768	2	 17.2202	 15.4753	-11.0374	C.1
  1769	2	 17.5082	 15.9431	-10.2746	C.1
  1770	2	 15.6492	 16.1877	-10.8811	C.1
  1771	2	 15.9373	 16.6555	-10.1183	C.1
  1772	1	 16.4911	-18.1682	 11.3626	N.3
  1773	2	 15.5567	-18.6469	 11.0183	C.1
  1774	2	 15.6598	-18.5962	 11.9513	C.1
  1775	2	 16.4856	-17.1963	  10.837	C.1
  1776	2	 16.5888	-17.1457	 11.7699	C.1
  1777	2	 17.2764	-18.7373	 10.8331	C.1
  1778	2	 17.3795	-18.6867	 11.7661	C.1
  1779	1	 16.5384	-14.0796	 4.10105	N.3
  1780	2	 17.0042	-13.7238	 5.03772	C.1
  1781	2	 16.9565	-14.6579	 4.94459	C.1
  1782	2	 17.1169	 -13.558	 3.31731	C.1
  1783	2	 17.0692	-14.4922	 3.22419	C.1
  1784	2	 15.5657	-13.5556	 4.08781	C.1
  1785	2	  15.518	-14.4898	 3.99469	C.1
  1786	1	 13.0459	 5.71888	 2.82708	N.3
  1787	2	 13.3496	 6.71911	 3.18514	C.1
  1788	2	  14.037	 6.20646	 2.80019	C.1
  1789	2	 12.1928	 5.93773	 2.15984	C.1
  1790	2	 12.8802	 5.42509	 1.77489	C.1
  1791	2	  12.564	 5.26877	  3.7137	C.1
  1792	2	 13.2515	 4.75612	 3.32875	C.1
  1793	1	 12.6652	 6.80754	-17.4307	N.3
  1794	2	 13.5586	 7.22797	-17.9266	C.1
  1795	2	 13.5863	 7.22651	 -16.987	C.1
  1796	2	  12.561	 5.81238	-17.8994	C.1
  1797	2	 12.5886	 5.81093	-16.9598	C.1
  1798	2	 11.8344	 7.38445	-17.8756	C.1
  1799	2	 11.8621	 7.38299	 -16.936	C.1
  1800	1	 2.45746	-11.4995	 2.48911	N.3
  1801	2	 1.49366	-11.0264	 2.75012	C.1
  1802	2	 2.16753	-10.9463	 3.40058	C.1
  1803	2	 2.69824	-11.0565	 1.50592	C.1
  1804	2	  3.3721	-10.9765	 2.15638	C.1
  1805	2	 2.16969	-12.5357	 2.23559	C.1
  1806	2	 2.84355	-12.4557	 2.88605	C.1
  1807	1	 7.03088	 9.98301	  11.897	N.3
  1808	2	  7.8757	 10.0543	 12.6056	C.1
  1809	2	 8.02348	 9.49884	 11.8619	C.1
  1810	2	  6.8114	 11.0393	 11.6585	C.1
  1811	2	 6.95918	 10.4838	 10.9147	C.1
  1812	2	 6.18389	 9.68862	 12.5426	C.1
  1813	2	 6.33166	 9.13312	 11.7989	C.1
  1814	1	 19.0729	-1.45766	 18.0644	N.3
  1815	2	 18.4579	-1.29321	 18.9676	C.1
  1816	2	 19.3798	-1.39017	 19.1238	C.1
  1817	2	 18.7934	-0.611657	  17.411	C.1
  1818	2	 19.7152	-0.708616	 17.5672	C.1
  1819	2	 18.5847	-2.32267	 17.5805	C.1
  1820	2	 19.5066	-2.41963	 17.7367	C.1
  1821	1	 14.9895	-5.51502	 5.10127	N.3
  1822	2	 14.5148	-6.15989	 5.86267	C.1
  1823	2	 14.0912	-6.15373	 5.02354	C.1
  1824	2	 16.0387	-5.86129	 5.09556	C.1
  1825	2	 15.6151	-5.85514	 4.25644	C.1
  1826	2	 15.0503	 -4.5331	 5.60426	C.1
  1827	2	 14.6267	-4.52695	 4.76514	C.1
  1828	1	-2.70102	-6.03094	 1.18965	N.3
  1829	2	-2.29558	-5.43217	0.354186	C.1
  1830	2	 -2.8396	-4.95954	0.957728	C.1
  1831	2	  -1.799	-6.49151	 1.63136	C.1
  1832	2	-2.34302	-6.01888	  2.2349	C.1
  1833	2	-3.19244	 -6.8781	 0.67809	C.1
  1834	2	-3.73645	-6.40546	 1.28163	C.1
  1835	1	 -16.079	-13.4646	  11.857	N.3
  1836	2	-16.0317	-14.4387	 11.3376	C.1
  1837	2	-16.6533	-14.3904	 12.0412	C.1
  1838	2	-16.2447	 -12.747	 11.0334	C.1
  1839	2	-16.8662	-12.6987	 11.7369	C.1
  1840	2	-15.0282	-13.2806	 12.1448	C.1
  1841	2	-15.6497	-13.2323	 12.8483	C.1
  1842	1	-10.1139	 3.32731	-9.32996	N.3
  1843	2	 -9.3049	 3.07636	-10.0395	C.1
  1844	2	-9.91061	    2.38	-9.86116	C.1
  1845	2	-10.5605	 4.23808	-9.76798	C.1
  1846	2	-11.1663	 3.54173	-9.58966	C.1
  1847	2	 -9.5677	 3.71203	-8.44989	C.1
  1848	2	-10.1734	 3.01567	-8.27157	C.1
  1849	1	 3.22673	0.705997	 10.3374	N.3
  1850	2	 2.47932	 1.34851	 10.8368	C.1
  1851	2	 2.29722	0.426766	 10.8655	C.1
  1852	2	 4.17812	 1.01202	 10.8086	C.1
  1853	2	 3.99602	0.0902758	 10.8373	C.1
  1854	2	 3.29589	 1.14008	 9.32364	C.1
  1855	2	 3.11379	 0.21833	 9.35234	C.1
  1856	1	 4.20648	-17.6253	 7.76572	N.3
  1857	2	 4.26025	-16.5288	 7.89058	C.1
  1858	2	 4.15974	-16.8258	 7.00444	C.1
  1859	2	 3.39395	-17.9184	 8.45471	C.1
  1860	2	 3.29345	-18.2155	 7.56857	C.1
  1861	2	 5.11601	-17.9831	 8.28107	C.1
  1862	2	 5.01551	-18.2802	 7.39493	C.1
  1863	1	 8.06028	-0.731499	 5.57159	N.3
  1864	2	 7.02354	-1.00316	 5.84041	C.1
  1865	2	 7.60164	-0.862868	 6.56823	C.1
  1866	2	 7.92817	 0.13744	   4.902	C.1
  1867	2	 8.50628	0.277735	 5.62981	C.1
  1868	2	 8.36198	-1.53922	 4.88063	C.1
  1869	2	 8.94008	-1.39892	 5.60844	C.1
  1870	1	 12.7554	-4.43824	 4.42368	N.3
  1871	2	 13.5975	-4.52672	 5.13365	C.1
  1872	2	 12.8966	-3.96582	 5.41252	C.1
  1873	2	 12.4705	-5.48943	 4.23753	C.1
  1874	2	 11.7696	-4.92854	  4.5164	C.1
  1875	2	 13.2497	-4.13992	 3.48157	C.1
  1876	2	 12.5488	-3.57902	 3.76044	C.1
  1877	1	-17.6392	 5.92641	-7.47803	N.3
  1878	2	-17.0761	 6.87646	-7.51341	C.1
  1879	2	-17.8823	 6.87122	-7.99682	C.1
  1880	2	-17.7394	 5.73237	 -6.3949	C.1
  1881	2	-18.5456	 5.72712	-6.87832	C.1
  1882	2	-16.8928	 5.17827	-7.80064	C.1
  1883	2	 -17.699	 5.17303	-8.28406	C.1
  1884	1	-7.99869	-1.11098	-5.01787	N.3
  1885	2	-7.44413	-0.504587	-4.27918	C.1
  1886	2	-8.36027	-0.30702	-4.35167	C.1
  1887	2	-7.76381	-2.14877	 -4.7201	C.1
  1888	2	-8.67995	-1.95121	-4.79259	C.1
  1889	2	-7.41391	-0.975916	-5.94558	C.1
  1890	2	-8.33005	-0.778348	-6.01807	C.1
  1891	1	-5.91308	 17.0811	 3.76737	N.3
  1892	2	-6.34115	 16.6068	 2.86586	C.1
  1893	2	-6.76261	 16.3806	 3.67506	C.1
  1894	2	-5.92439	  18.157	 3.51628	C.1
  1895	2	-6.34585	 17.9308	 4.32548	C.1
  1896	2	-4.84151	 16.8187	 3.70617	C.1
  1897	2	-5.26297	 16.5925	 4.51537	C.1
  1898	1	-10.5333	-17.4976	-9.29693	N.3
  1899	2	-9.94239	-18.3459	 -8.9068	C.1
  1900	2	-10.3621	-18.4979	-9.73404	C.1
  1901	2	-9.81287	  -16.66	-9.28232	C.1
  1902	2	-10.2326	 -16.812	-10.1096	C.1
  1903	2	-11.2151	 -17.259	-8.46081	C.1
  1904	2	-11.6348	 -17.411	-9.28805	C.1
  1905	1	-12.9035	 8.89564	 16.9704	N.3
  1906	2	-13.5253	 8.38867	 17.7303	C.1
  1907	2	-12.6303	 8.10386	 17.6911	C.1
  1908	2	-13.0462	 9.96677	  17.201	C.1
  1909	2	-12.1513	 9.68196	 17.1619	C.1
  1910	2	-13.4815	 8.75868	 16.0388	C.1
  1911	2	-12.5866	 8.47388	 15.9996	C.1
  1912	1	 7.90323	  3.7293	 12.5048	N.3
  1913	2	 7.32668	 4.64647	 12.2873	C.1
  1914	2	 7.93158	   4.386	 11.6166	C.1
  1915	2	 7.11892	 2.98862	 12.7437	C.1
  1916	2	 7.72382	 2.72816	  12.073	C.1
  1917	2	 8.35674	 3.94351	 13.4893	C.1
  1918	2	 8.96164	 3.68304	 12.8186	C.1
  1919	1	 4.51199	 12.3482	 17.5063	N.3
  1920	2	 5.48161	 12.8777	 17.5259	C.1
  1921	2	 4.99582	 12.9625	 16.7257	C.1
  1922	2	 3.99962	 12.7259	 18.4095	C.1
  1923	2	 3.51383	 12.8107	 17.6092	C.1
  1924	2	 4.78341	 11.3137	 17.7839	C.1
  1925	2	 4.29763	 11.3986	 16.9836	C.1
  1926	1	-3.11568	 15.4057	-13.0768	N.3
  1927	2	-3.46607	 16.3595	 -13.511	C.1
  1928	2	-3.15816	 16.4129	-12.6244	C.1
  1929	2	-2.37107	 15.0518	-13.8124	C.1
  1930	2	-2.06316	 15.1052	-12.9259	C.1
  1931	2	-3.97175	 14.7257	-13.2368	C.1
  1932	2	-3.66384	 14.7792	-12.3503	C.1
  1933	1	-5.90475	-18.1507	 2.88661	N.3
  1934	2	-5.34776	-17.7142	 2.03801	C.1
  1935	2	-6.27673	-17.7844	 1.91277	C.1
  1936	2	-5.59179	-17.5257	 3.74238	C.1
  1937	2	-6.52075	 -17.596	 3.61714	C.1
  1938	2	-5.38124	-19.1068	 3.06731	C.1
  1939	2	 -6.3102	 -19.177	 2.94207	C.1
  1940	1	-19.7646	 12.3253	 7.31368	N.3
  1941	2	-20.3745	 13.0079	 6.69484	C.1
  1942	2	-19.7583	 12.4806	 6.21972	C.1
  1943	2	-20.5213	 11.7612	  7.8882	C.1
  1944	2	 -19.905	 11.2339	 7.41308	C.1
  1945	2	-19.3224	 12.9978	 8.07068	C.1
  1946	2	-18.7062	 12.4705	 7.59556	C.1
  1947	1	 6.62375	-6.74185	-1.23208	N.3
  1948	2	 5.69531	-7.32691	-1.36091	C.1
  1949	2	  5.5735	-6.44471	-1.06011	C.1
  1950	2	 7.12191	-6.83922	-2.21352	C.1
  1951	2	 7.00009	-5.95702	-1.91271	C.1
  1952	2	 7.23676	-7.38272	-0.573014	C.1
  1953	2	 7.11494	-6.50052	-0.272213	C.1
  1954	1	-3.34725	 15.1785	-15.7185	N.3
  1955	2	-3.75887	 14.8087	-14.7621	C.1
  1956	2	-3.89184	 15.7245	-14.9272	C.1
  1957	2	 -3.7924	 14.4968	-16.4655	C.1
  1958	2	-3.92538	 15.4126	-16.6306	C.1
  1959	2	-2.29104	 14.8563	-15.6803	C.1
  1960	2	-2.42401	 15.7721	-15.8454	C.1
  1961	1	 2.91958	-19.6882	-8.43138	N.3
  1962	2	 3.77665	-19.3581	-7.81705	C.1
  1963	2	 2.95842	-18.9398	-7.61942	C.1
  1964	2	 2.92802	-20.7861	-8.30763	C.1
  1965	2	 2.10978	-20.3677	-8.11001	C.1
  1966	2	 3.28142	-19.5478	 -9.4659	C.1
  1967	2	 2.46319	-19.1294	-9.26828	C.1
  1968	1	 5.56915	 15.9107	-15.2038	N.3
  1969	2	 6.09209	 16.4576	 -16.009	C.1
  1970	2	  5.4048	 15.8843	-16.2961	C.1
  1971	2	 5.25313	 16.7154	-14.5158	C.1
  1972	2	 4.56584	 16.1421	-14.8029	C.1
  1973	2	 6.39317	 15.4191	-14.6559	C.1
  1974	2	 5.70587	 14.8457	-14.9431	C.1
  1975	1	-17.8527	 6.51276	  10.181	N.3
  1976	2	-17.1326	 7.29332	   9.876	C.1
  1977	2	-17.6957	  6.9794	 9.19187	C.1
  1978	2	-18.3707	 6.97004	 11.0433	C.1
  1979	2	-18.9337	 6.65612	 10.3592	C.1
  1980	2	-17.2103	 5.74581	   10.65	C.1
  1981	2	-17.7734	  5.4319	 9.96591	C.1
  1982	1	0.781652	 19.5577	 1.63812	N.3
  1983	2	0.927426	 20.5222	 2.15714	C.1
  1984	2	0.988987	 20.5592	 1.21989	C.1
  1985	2	-0.187913	  19.203	 2.03181	C.1
  1986	2	-0.126352	   19.24	 1.09456	C.1
  1987	2	  1.5131	 18.8924	 2.13128	C.1
  1988	2	 1.57466	 18.9294	 1.19403	C.1
  1989	1	 4.50324	-5.87707	-19.3623	N.3
  1990	2	  5.5413	-5.97789	-19.7273	C.1
  1991	2	 5.17397	-5.11567	-19.7997	C.1
  1992	2	 4.55631	-6.28054	-18.3351	C.1
  1993	2	 4.18899	-5.41832	-18.4075	C.1
  1994	2	  3.9631	 -6.6661	 -19.916	C.1
  1995	2	 3.59578	-5.80388	-19.9884	C.1
  1996	1	-8.89154	 10.9094	 9.61407	N.3
  1997	2	-9.86343	 10.9344	 10.1391	C.1
  1998	2	-9.35913	 11.7259	 10.1934	C.1
  1999	2	 -9.1654	 10.5959	 8.59057	C.1
  2000	2	 -8.6611	 11.3873	 8.64485	C.1
  2001	2	-8.40224	 10.0108	 10.0311	C.1
  2002	2	-7.89794	 10.8022	 10.0854	C.1
  2003	1	-13.1211	 1.98077	 9.16749	N.3
  2004	2	-13.9447	 2.42252	 9.75705	C.1
  2005	2	  -13.56	 2.99359	 9.11714	C.1
  2006	2	-13.5685	 1.05505	 8.76281	C.1
  2007	2	-13.1838	 1.62613	 8.12291	C.1
  2008	2	-12.4273	 1.60812	 9.94247	C.1
  2009	2	-12.0426	  2.1792	 9.30257	C.1
  2010	1	  -10.39	 2.32997	 10.0909	N.3
  2011	2	-11.2685	 2.09897	  9.4618	C.1
  2012	2	-11.2893	 1.73306	 10.3274	C.1
  2013	2	-10.3315	  3.4325	  10.048	C.1
  2014	2	-10.3523	  3.0666	 10.9136	C.1
  2015	2	-9.53891	 2.00729	 9.46458	C.1
  2016	2	-9.55969	 1.64139	 10.3302	C.1
  2017	1	-11.9535	 15.8978	-10.3886	N.3
  2018	2	-12.1825	  16.666	 -9.6281	C.1
  2019	2	-12.9058	 16.1179	 -9.8732	C.1
  2020	2	 -11.086	 15.3663	-9.95749	C.1
  2021	2	-11.8093	 14.8182	-10.2026	C.1
  2022	2	-11.5071	 16.4832	-11.2125	C.1
  2023	2	-12.2304	 15.9351	-11.4576	C.1
  2024	1	-17.4197	-7.47085	 8.83639	N.3
  2025	2	-17.1296	-7.01743	 9.80135	C.1
  2026	2	-17.9993	-7.37304	 9.77207	C.1
  2027	2	-16.6087	-8.19613	 8.64409	C.1
  2028	2	-17.4783	-8.55174	 8.61481	C.1
  2029	2	-17.2165	-6.66557	 8.10765	C.1
  2030	2	-18.0861	-7.02117	 8.07837	C.1
  2031	1	 9.50438	  18.244	 4.36177	N.3
  2032	2	 10.0834	 18.4183	 5.28659	C.1
  2033	2	 10.5839	 18.1075	 4.55412	C.1
  2034	2	 8.98669	 19.2071	 4.20258	C.1
  2035	2	 9.48719	 18.8963	  3.4701	C.1
  2036	2	 8.69235	 17.5728	 4.69486	C.1
  2037	2	 9.19284	  17.262	 3.96238	C.1
  2038	1	 17.8801	-4.03071	-5.61176	N.3
  2039	2	 17.4903	-3.58916	-6.54663	C.1
  2040	2	 18.4254	-3.67511	-6.50457	C.1
  2041	2	 17.3168	 -4.9773	-5.52541	C.1
  2042	2	 18.2519	-5.06325	-5.48334	C.1
  2043	2	 17.4306	-3.39673	-4.82635	C.1
  2044	2	 18.3657	-3.48268	-4.78429	C.1
  2045	1	 18.3845	 9.37193	 5.35114	N.3
  2046	2	 18.4795	 9.77488	 4.32668	C.1
  2047	2	 17.7659	 9.17696	  4.4566	C.1
  2048	2	 18.3561	  10.281	 5.97852	C.1
  2049	2	 17.6426	  9.6831	 6.10844	C.1
  2050	2	 19.3883	 8.95676	 5.55334	C.1
  2051	2	 18.6747	 8.35884	 5.68325	C.1
  2052	1	 5.01021	 2.66659	-8.57447	N.3
  2053	2	 4.23098	 2.47797	-9.33481	C.1
  2054	2	 3.91075	 2.64435	-8.46685	C.1
  2055	2	 5.60573	 3.48353	-9.02035	C.1
  2056	2	 5.28549	 3.64991	-8.15239	C.1
  2057	2	 5.67428	 1.78868	-8.67018	C.1
  2058	2	 5.35404	 1.95506	-7.80221	C.1
  2059	1	 6.09282	 1.99129	 13.0668	N.3
  2060	2	 6.13315	 1.24864	 13.8839	C.1
  2061	2	 6.67624	 1.05589	 13.1413	C.1
  2062	2	 6.31853	 2.94362	 13.5796	C.1
  2063	2	 6.86162	 2.75087	 12.8369	C.1
  2064	2	 5.01213	 2.07072	 12.8507	C.1
  2065	2	 5.55522	 1.87797	 12.1081	C.1
  2066	1	 9.29842	-3.46314	 8.47839	N.3
  2067	2	 8.58117	-2.63146	 8.35689	C.1
  2068	2	 9.12474	-2.58209	  9.1222	C.1
  2069	2	 9.84128	-3.47114	 7.51605	C.1
  2070	2	 10.3848	-3.42177	 8.28136	C.1
  2071	2	 8.65746	-4.36086	 8.41425	C.1
  2072	2	 9.20102	 -4.3115	 9.17956	C.1
  2073	1	 4.69023	0.422389	-13.4327	N.3
  2074	2	 5.51653	0.120736	 -12.764	C.1
  2075	2	 5.51708	-0.288755	-13.6102	C.1
  2076	2	 4.76407	 1.52478	 -13.444	C.1
  2077	2	 4.76462	 1.11529	-14.2902	C.1
  2078	2	 3.78926	0.235884	-12.8209	C.1
  2079	2	 3.78981	-0.173608	 -13.667	C.1
  2080	1	-13.0756	 11.0899	-11.2088	N.3
  2081	2	-12.1286	 10.5619	-10.9961	C.1
  2082	2	-12.8002	 10.4555	-10.3471	C.1
  2083	2	-13.3402	 10.7359	-12.2215	C.1
  2084	2	-14.0118	 10.6295	-11.5725	C.1
  2085	2	-12.7505	 12.1316	-11.3823	C.1
  2086	2	-13.4222	 12.0252	-10.7334	C.1
  2087	1	-15.0146	-2.06707	 16.0203	N.3
  2088	2	-15.6861	 -2.1313	 15.1451	C.1
  2089	2	-15.7097	-1.31356	 15.6081	C.1
  2090	2	-14.0292	 -2.3428	 15.6034	C.1
  2091	2	-14.0529	-1.52505	 16.0663	C.1
  2092	2	 -15.293	-2.95373	 16.6179	C.1
  2093	2	-15.3167	-2.13599	 17.0809	C.1
  2094	1	 9.15232	-16.0475	 15.5072	N.3
  2095	2	 8.55165	-15.5352	 16.2803	C.1
  2096	2	 8.26789	-15.3948	 15.3952	C.1
  2097	2	 9.14768	-17.1009	 15.8408	C.1
  2098	2	 8.86392	-16.9605	 14.9557	C.1
  2099	2	 10.1833	-15.7172	 15.7283	C.1
  2100	2	  9.8995	-15.5768	 14.8432	C.1
  2101	1	 9.75739	 -11.397	-4.16928	N.3
  2102	2	 9.75944	-11.1406	-5.24406	C.1
  2103	2	 9.34895	-11.9584	-5.02889	C.1
  2104	2	  9.3053	-10.5058	-3.69784	C.1
  2105	2	 8.89481	-11.3236	-3.48267	C.1
  2106	2	 10.8232	-11.3179	 -3.8887	C.1
  2107	2	 10.4127	-12.1357	-3.67353	C.1
  2108	1	-6.93782	 18.8337	  10.439	N.3
  2109	2	-7.17111	  18.714	 11.5123	C.1
  2110	2	-6.27549	  18.552	 11.2773	C.1
  2111	2	-7.30681	 19.8502	 10.2122	C.1
  2112	2	-6.41118	 19.6882	 9.97715	C.1
  2113	2	-7.67896	 18.1799	  9.9449	C.1
  2114	2	-6.78334	  18.018	  9.7099	C.1
  2115	1	-15.6786	 8.85168	-6.01458	N.3
  2116	2	-16.3103	 8.79943	-6.91964	C.1
  2117	2	-16.7289	  8.5263	-6.12355	C.1
  2118	2	-15.3148	   9.895	-6.02032	C.1
  2119	2	-15.7334	 9.62186	-5.22422	C.1
  2120	2	-14.7827	 8.27031	-6.29793	C.1
  2121	2	-15.2013	 7.99718	-5.50184	C.1
  2122	1	 15.6607	-18.8596	 17.8744	N.3
  2123	2	 16.6171	-19.1252	 18.3596	C.1
  2124	2	 16.6953	-18.7426	 17.5046	C.1
  2125	2	  15.162	-18.2253	 18.6293	C.1
  2126	2	 15.2402	-17.8427	 17.7743	C.1
  2127	2	 15.0856	-19.8021	 17.9167	C.1
  2128	2	 15.1638	-19.4194	 17.0616	C.1
  2129	1	 13.2415	 14.7694	 14.5149	N.3
  2130	2	 12.1535	 14.9517	 14.4509	C.1
  2131	2	 12.5829	 14.8018	 13.6282	C.1
  2132	2	 13.3164	 13.9407	 15.2419	C.1
  2133	2	 13.7457	 13.7909	 14.4192	C.1
  2134	2	 13.6104	 15.6404	 15.0858	C.1
  2135	2	 14.0398	 15.4906	 14.2631	C.1
  2136	1	 10.7916	 2.46502	-8.27675	N.3
  2137	2	 11.7597	 2.51252	-7.74624	C.1
  2138	2	 11.0028	 2.45121	-7.19226	C.1
  2139	2	 10.9295	 1.62322	-8.97905	C.1
  2140	2	 10.1726	 1.56191	-8.42507	C.1
  2141	2	 10.8211	 3.35128	-8.93593	C.1
  2142	2	 10.0641	 3.28998	-8.38195	C.1
  2143	1	 17.4172	 1.91626	 15.4922	N.3
  2144	2	 17.1668	 2.49364	 16.4004	C.1
  2145	2	 16.8644	 1.60361	 16.3965	C.1
  2146	2	 18.5117	 2.04117	 15.4072	C.1
  2147	2	 18.2093	 1.15114	 15.4032	C.1
  2148	2	 17.0265	   2.549	  14.675	C.1
  2149	2	 16.7241	 1.65898	  14.671	C.1
  2150	1	 12.2953	 3.72875	-14.3223	N.3
  2151	2	  11.696	 3.50571	-15.2234	C.1
  2152	2	 11.4188	 3.06641	-14.4399	C.1
  2153	2	 12.2772	 4.83246	-14.2737	C.1
  2154	2	      12	 4.39316	-13.4903	C.1
  2155	2	 13.3286	 3.50703	 -14.645	C.1
  2156	2	 13.0514	 3.06773	-13.8615	C.1
  2157	1	-19.6065	 14.7468	 17.5465	N.3
  2158	2	-18.5402	 14.5458	  17.755	C.1
  2159	2	-18.7498	 15.4441	 17.5742	C.1
  2160	2	-20.1215	  14.311	 18.4215	C.1
  2161	2	-20.3311	 15.2093	 18.2407	C.1
  2162	2	-19.8434	 14.0363	 16.7342	C.1
  2163	2	 -20.053	 14.9346	 16.5534	C.1
  2164	1	 1.42726	-18.9279	-18.9172	N.3
  2165	2	 1.31659	-17.9436	-19.4068	C.1
  2166	2	0.717625	-18.6058	-19.7005	C.1
  2167	2	 1.36676	-18.6832	-17.8414	C.1
  2168	2	 0.76779	-19.3454	-18.1351	C.1
  2169	2	 2.49688	-19.1636	-19.0628	C.1
  2170	2	 1.89791	-19.8259	-19.3566	C.1
  2171	1	   9.279	-19.4047	 15.2353	N.3
  2172	2	 9.59903	-18.3833	 14.9607	C.1
  2173	2	 10.0184	-18.7429	 15.7213	C.1
  2174	2	 9.42911	 -19.976	 14.3015	C.1
  2175	2	  9.8485	-20.3355	 15.0621	C.1
  2176	2	 8.17976	-19.3153	 15.3028	C.1
  2177	2	 8.59915	-19.6749	 16.0633	C.1
  2178	1	 -18.519	 17.1778	 16.0314	N.3
  2179	2	-19.2906	 17.9643	 16.1144	C.1
  2180	2	-19.0808	 17.7011	 15.2368	C.1
  2181	2	-18.9064	  16.374	 16.6832	C.1
  2182	2	-18.6966	 16.1108	 15.8055	C.1
  2183	2	-17.6748	 17.5898	 16.6131	C.1
  2184	2	-17.4649	 17.3266	 15.7354	C.1
  2185	1	 11.7862	-12.6409	 19.1192	N.3
  2186	2	 11.9164	-12.2956	 20.1607	C.1
  2187	2	 11.7726	-11.6148	 19.5288	C.1
  2188	2	 10.9746	-13.3864	 19.1998	C.1
  2189	2	 10.8309	-12.7055	 18.5679	C.1
  2190	2	 12.6833	 -13.262	 18.9451	C.1
  2191	2	 12.5395	-12.5812	 18.3131	C.1
  2192	1	 13.1441	0.930472	-0.0437787	N.3
  2193	2	 13.2877	 2.02349	-0.118662	C.1
  2194	2	 12.7612	 1.64192	-0.797512	C.1
  2195	2	 12.7573	0.796232	0.982477	C.1
  2196	2	 12.2309	0.414656	0.303627	C.1
  2197	2	 14.1771	0.544057	0.0231234	C.1
  2198	2	 13.6507	0.162481	-0.655726	C.1
  2199	1	 10.9128	 9.43098	 6.13659	N.3
  2200	2	 11.2897	 9.26367	 5.11148	C.1
  2201	2	 11.9447	 9.49109	 5.74618	C.1
  2202	2	   10.35	 8.50508	 6.35305	C.1
  2203	2	 11.0051	  8.7325	 6.98775	C.1
  2204	2	 10.1162	 10.1831	 5.99319	C.1
  2205	2	 10.7712	 10.4105	 6.62789	C.1
  2206	1	 -3.0434	 18.5736	 7.85708	N.3
  2207	2	-4.14089	  18.447	 7.87617	C.1
  2208	2	-3.82416	 19.2476	 8.25329	C.1
  2209	2	-2.79028	 18.4233	 6.79209	C.1
  2210	2	-2.47355	  19.224	 7.16921	C.1
  2211	2	-2.67411	 17.6495	 8.33728	C.1
  2212	2	-2.35738	 18.4502	  8.7144	C.1
  2213	1	  4.1145	 8.91718	 1.02129	N.3
  2214	2	 4.66229	 9.54889	0.298952	C.1
  2215	2	 4.33091	 8.74045	-0.0477457	C.1
  2216	2	 3.34938	 9.60316	 1.42735	C.1
  2217	2	 3.01799	 8.79471	 1.08065	C.1
  2218	2	 4.82892	 8.81217	 1.85761	C.1
  2219	2	 4.49753	 8.00372	 1.51092	C.1
  2220	1	   12.43	 16.3539	-7.96708	N.3
  2221	2	 11.4795	 16.0953	-8.46773	C.1
  2222	2	 11.9267	 15.3748	-8.06206	C.1
  2223	2	 12.1408	 17.1725	 -7.2836	C.1
  2224	2	  12.588	 16.4521	-6.87793	C.1
  2225	2	 12.9987	 16.8746	 -8.7584	C.1
  2226	2	 13.4459	 16.1542	-8.35273	C.1
  2227	1	-14.9677	 10.5719	 17.7224	N.3
  2228	2	-14.3139	 9.75864	 17.3591	C.1
  2229	2	-14.7503	  10.251	 16.6877	C.1
  2230	2	-14.2995	 11.1598	 18.3772	C.1
  2231	2	-14.7359	 11.6521	 17.7058	C.1
  2232	2	-15.6352	 10.0588	  18.438	C.1
  2233	2	-16.0716	 10.5511	 17.7666	C.1
  2234	1	-3.84822	 11.5629	-16.9926	N.3
  2235	2	-3.66325	 12.6346	-16.7974	C.1
  2236	2	-3.55516	 12.3666	-17.6919	C.1
  2237	2	-4.85675	 11.3999	-16.5718	C.1
  2238	2	-4.74866	 11.1319	-17.4662	C.1
  2239	2	-3.18679	 11.0562	 -16.267	C.1
  2240	2	 -3.0787	 10.7882	-17.1615	C.1
  2241	1	-7.81719	-13.3542	-13.0269	N.3
  2242	2	-6.91494	-13.6329	-13.6007	C.1
  2243	2	-7.38391	-14.3524	-13.2186	C.1
  2244	2	  -8.395	-12.7449	 -13.745	C.1
  2245	2	-8.86397	-13.4644	 -13.363	C.1
  2246	2	-7.43818	-12.6056	-12.3081	C.1
  2247	2	-7.90715	-13.3251	 -11.926	C.1
  2248	1	 1.11279	-7.77817	 15.4248	N.3
  2249	2	 1.47045	 -8.3835	 14.5724	C.1
  2250	2	 1.78301	 -8.6566	 15.4158	C.1
  2251	2	0.0147414	-7.79403	 15.3028	C.1
  2252	2	0.327298	-8.06713	 16.1462	C.1
  2253	2	 1.38434	-6.74734	 15.1341	C.1
  2254	2	  1.6969	-7.02043	 15.9775	C.1
  2255	1	 16.0997	 7.48802	 -13.955	N.3
  2256	2	  17.019	 7.00594	-14.3337	C.1
  2257	2	 16.5139	 7.46626	-14.9791	C.1
  2258	2	 16.4661	 8.10668	 -13.116	C.1
  2259	2	  15.961	   8.567	-13.7615	C.1
  2260	2	 15.5716	 6.66098	-13.4471	C.1
  2261	2	 15.0665	 7.12129	-14.0926	C.1
  2262	1	 3.69307	-2.97133	-10.1121	N.3
  2263	2	 4.07948	-2.89483	-9.07977	C.1
  2264	2	 4.61219	-2.48581	-9.73744	C.1
  2265	2	 2.66497	-2.57558	 -10.027	C.1
  2266	2	 3.19768	-2.16656	-10.6846	C.1
  2267	2	 3.53569	-4.05712	-10.2431	C.1
  2268	2	  4.0684	-3.64809	-10.9008	C.1
  2269	1	 18.2207	-4.92848	 13.8323	N.3
  2270	2	 18.7602	-5.89124	 13.8867	C.1
  2271	2	 17.8796	-5.94412	 13.5621	C.1
  2272	2	  18.902	-4.29025	 13.2412	C.1
  2273	2	 18.0214	-4.34313	 12.9166	C.1
  2274	2	 18.3209	-4.52462	 14.8559	C.1
  2275	2	 17.4403	-4.57751	 14.5313	C.1
  2276	1	-10.4342	-0.0949239	0.498333	N.3
  2277	2	-10.8309	0.496826	 1.34293	C.1
  2278	2	-10.3236	0.982308	0.717981	C.1
  2279	2	-11.3347	-0.588593	0.0907576	C.1
  2280	2	-10.8275	-0.103111	-0.534196	C.1
  2281	2	-9.89782	-0.921227	0.998737	C.1
  2282	2	-9.39053	-0.435746	0.373784	C.1
  2283	1	 13.0158	-8.58582	-8.92179	N.3
  2284	2	 13.2491	-9.09621	-7.96997	C.1
  2285	2	 13.6793	-8.27008	-8.09659	C.1
  2286	2	 11.9116	-8.54577	-8.92289	C.1
  2287	2	 12.3418	-7.71964	-9.04951	C.1
  2288	2	 13.2414	-9.35468	 -9.6826	C.1
  2289	2	 13.6716	-8.52855	-9.80921	C.1
  2290	1	 -19.515	-4.01288	-3.73237	N.3
  2291	2	-18.5455	-3.79603	  -4.216	C.1
  2292	2	-19.2259	-4.08562	-4.79634	C.1
  2293	2	-19.7344	-3.08261	-3.17804	C.1
  2294	2	-20.4148	-3.37219	-3.75837	C.1
  2295	2	-19.2445	-4.72563	-2.93258	C.1
  2296	2	-19.9249	-5.01522	-3.51292	C.1
  2297	1	 -3.1833	-4.28149	 6.37305	N.3
  2298	2	 -2.7288	 -3.9163	 7.31164	C.1
  2299	2	-2.31578	-3.61386	 6.52326	C.1
  2300	2	-4.24709	-4.00366	 6.48271	C.1
  2301	2	-3.83407	-3.70122	 5.69433	C.1
  2302	2	-3.19355	-5.37817	 6.50735	C.1
  2303	2	-2.78053	-5.07573	 5.71897	C.1
  2304	1	-11.8606	-1.69905	 2.74893	N.3
  2305	2	 -11.823	-1.64238	 3.85178	C.1
  2306	2	-11.9338	-2.50674	 3.49938	C.1
  2307	2	-10.9364	-1.17952	 2.43767	C.1
  2308	2	-11.0473	-2.04388	 2.08526	C.1
  2309	2	-12.6561	-0.978707	 2.48596	C.1
  2310	2	-12.7669	-1.84307	 2.13355	C.1
  2311	1	-12.0454	0.201849	-9.88516	N.3
  2312	2	-12.4167	-0.837449	-9.83131	C.1
  2313	2	 -12.874	-0.280255	-10.4347	C.1
  2314	2	-10.9668	0.0745282	 -10.088	C.1
  2315	2	 -11.424	0.631722	-10.6913	C.1
  2316	2	-12.0669	0.532677	-8.83114	C.1
  2317	2	-12.5242	 1.08987	-9.43451	C.1
  2318	1	 4.04108	 9.49825	 16.9512	N.3
  2319	2	  4.1755	 9.13327	 17.9854	C.1
  2320	2	  3.3047	 9.04889	 17.6416	C.1
  2321	2	 4.82296	  8.9569	 16.3886	C.1
  2322	2	 3.95215	 8.87252	 16.0449	C.1
  2323	2	 4.43098	 10.5312	 16.9952	C.1
  2324	2	 3.56018	 10.4468	 16.6514	C.1
  2325	1	  18.976	-12.9485	-10.0812	N.3
  2326	2	 19.6028	-13.7156	-9.59151	C.1
  2327	2	 19.6875	-12.8472	-9.24181	C.1
  2328	2	 17.9603	  -13.38	 -10.027	C.1
  2329	2	  18.045	-12.5116	 -9.6773	C.1
  2330	2	  19.238	-13.0526	-11.1495	C.1
  2331	2	 19.3227	-12.1842	-10.7998	C.1
  2332	1	 -6.8088	 14.5145	-19.3475	N.3
  2333	2	-5.92857	 15.1746	-19.2453	C.1
  2334	2	-6.29557	 14.8691	-18.4355	C.1
  2335	2	-6.45252	 13.7224	-20.0305	C.1
  2336	2	-6.81952	 13.4169	-19.2208	C.1
  2337	2	 -7.4948	 15.1048	-19.9815	C.1
  2338	2	 -7.8618	 14.7994	-19.1718	C.1
  2339	1	 8.47226	-18.0293	 1.39672	N.3
  2340	2	 7.78856	-17.6137	 0.63464	C.1
  2341	2	 7.37213	-17.9282	 1.41648	C.1
  2342	2	 9.20496	-17.2164	 1.54891	C.1
  2343	2	 8.78852	-17.5309	 2.33075	C.1
  2344	2	 9.04792	 -18.786	0.833845	C.1
  2345	2	 8.63148	-19.1005	 1.61568	C.1
  2346	1	 16.5299	-17.6324	-14.1404	N.3
  2347	2	 16.2883	-16.6716	-13.6511	C.1
  2348	2	 16.4512	-17.3887	-13.0656	C.1
  2349	2	 17.3701	-17.3711	-14.8088	C.1
  2350	2	  17.533	-18.0883	-14.2233	C.1
  2351	2	  15.687	-17.7787	-14.8397	C.1
  2352	2	 15.8499	-18.4958	-14.2542	C.1
  2353	1	-9.38188	 13.0531	 1.03622	N.3
  2354	2	-9.54463	 13.5784	 1.99456	C.1
  2355	2	-9.31129	 14.1306	  1.2705	C.1
  2356	2	-10.3135	 12.4737	0.904369	C.1
  2357	2	-10.0801	 13.0259	0.180306	C.1
  2358	2	-8.63756	 12.2788	 1.29582	C.1
  2359	2	-8.40422	  12.831	 0.57176	C.1
  2360	1	0.776519	-4.39638	 4.66025	N.3
  2361	2	-0.273792	-4.37825	 4.31759	C.1
  2362	2	0.238925	-5.09804	 3.99726	C.1
  2363	2	0.684554	-4.33743	 5.75976	C.1
  2364	2	 1.19727	-5.05723	 5.43943	C.1
  2365	2	 1.14972	-3.39378	 4.38391	C.1
  2366	2	 1.66244	-4.11358	 4.06357	C.1
  2367	1	-3.33522	-12.0611	-15.9525	N.3
  2368	2	-3.51469	-11.3946	-16.8153	C.1
  2369	2	-4.24655	-11.9278	-16.5629	C.1
  2370	2	-2.96541	-11.3711	-15.1729	C.1
  2371	2	-3.69727	-11.9043	-14.9205	C.1
  2372	2	-2.42777	 -12.618	 -16.248	C.1
  2373	2	-3.15963	-13.1512	-15.9956	C.1
  2374	1	  18.073	-7.77086	 9.77601	N.3
  2375	2	   18.95	-8.43413	 9.88501	C.1
  2376	2	 18.1962	 -8.6818	 10.3891	C.1
  2377	2	 17.9166	-7.73645	 8.68274	C.1
  2378	2	 17.1629	-7.98412	 9.18685	C.1
  2379	2	  18.483	-6.77049	 10.0041	C.1
  2380	2	 17.7292	-7.01816	 10.5082	C.1
  2381	1	-6.28802	 6.12553	-12.8447	N.3
  2382	2	-6.87754	 5.26421	-12.4821	C.1
  2383	2	-6.25278	 5.60748	-11.8693	C.1
  2384	2	-7.06272	 6.84023	-13.1762	C.1
  2385	2	-6.43796	  7.1835	-12.5634	C.1
  2386	2	-5.86094	 5.75726	-13.7948	C.1
  2387	2	-5.23619	 6.10053	-13.1821	C.1
  2388	1	 8.77381	 1.61358	-3.53006	N.3
  2389	2	 9.12509	 2.31902	-4.30457	C.1
  2390	2	 8.38097	 1.79797	-4.54622	C.1
  2391	2	 8.62743	  2.2608	-2.64659	C.1
  2392	2	 7.88331	 1.73975	-2.88824	C.1
  2393	2	  9.6851	 1.04248	-3.27656	C.1
  2394	2	 8.94098	0.521436	-3.51821	C.1
  2395	1	-4.00794	-9.14317	-4.22207	N.3
  2396	2	-4.59976	-8.21121	-4.17607	C.1
  2397	2	 -4.7371	-8.73455	-4.94474	C.1
  2398	2	-4.24682	-9.64156	 -3.2653	C.1
  2399	2	-4.38416	-10.1649	-4.03397	C.1
  2400	2	-2.97123	-8.79172	-4.07182	C.1
  2401	2	-3.10858	-9.31506	-4.84049	C.1
  2402	1	-11.1385	-19.2249	0.258506	N.3
  2403	2	-10.2713	-19.8177	-0.0844716	C.1
  2404	2	-11.0913	-20.2772	-0.075291	C.1
  2405	2	-11.1073	-18.3322	-0.391758	C.1
  2406	2	-11.9272	-18.7917	-0.382577	C.1
  2407	2	-10.8068	-18.8357	 1.23798	C.1
  2408	2	-11.6268	-19.2952	 1.24716	C.1
  2409	1	 6.44716	-5.33047	 16.0876	N.3
  2410	2	 6.36084	-5.18506	 14.9957	C.1
  2411	2	 6.69631	-4.44738	  15.472	C.1
  2412	2	 7.04461	-6.25603	 16.1727	C.1
  2413	2	 7.38009	-5.51834	 16.6491	C.1
  2414	2	 5.43283	-5.65684	   16.38	C.1
  2415	2	  5.7683	-4.91915	 16.8563	C.1
  2416	1	 12.9407	-14.3139	-2.81397	N.3
  2417	2	 13.2521	-15.2808	-2.37915	C.1
  2418	2	 12.3248	-15.1715	 -2.4881	C.1
  2419	2	 13.5337	-14.2527	-3.74427	C.1
  2420	2	 12.6065	-14.1433	-3.85322	C.1
  2421	2	 13.4272	-13.5723	-2.15507	C.1
  2422	2	    12.5	 -13.463	-2.26402	C.1
  2423	1	-4.02238	 8.97841	-18.3588	N.3
  2424	2	-3.10947	 8.86022	-17.7477	C.1
  2425	2	-3.74046	 8.16881	-17.6617	C.1
  2426	2	-3.62566	 9.12849	-19.3791	C.1
  2427	2	-4.25666	 8.43707	-19.2931	C.1
  2428	2	-4.38553	 9.98364	-18.0787	C.1
  2429	2	-5.01653	 9.29222	-17.9927	C.1
  2430	1	-18.3341	 3.93841	-4.43388	N.3
  2431	2	-17.6797	 3.46188	-3.68177	C.1
  2432	2	-17.3421	 3.46807	-4.55901	C.1
  2433	2	-18.5336	 4.93481	-4.00004	C.1
  2434	2	 -18.196	   4.941	-4.87728	C.1
  2435	2	-19.2953	 3.40925	-4.30396	C.1
  2436	2	-18.9577	 3.41544	 -5.1812	C.1
  2437	1	0.630504	 15.8492	-2.98546	N.3
  2438	2	-0.346715	 15.3572	-3.13981	C.1
  2439	2	-0.389236	 16.2687	-2.91406	C.1
  2440	2	 1.17828	 15.6209	-3.91749	C.1
  2441	2	 1.13576	 16.5324	-3.69174	C.1
  2442	2	 1.12373	 15.2024	-2.23771	C.1
  2443	2	 1.08121	 16.1139	-2.01196	C.1
  2444	1	 3.57079	 14.8618	-5.32621	N.3
  2445	2	 3.86484	 14.3211	-4.40855	C.1
  2446	2	 4.57696	 14.6761	-4.90906	C.1
  2447	2	  2.8389	 15.6036	 -4.9588	C.1
  2448	2	 3.55102	 15.9585	 -5.4593	C.1
  2449	2	 2.94044	 14.1283	-5.86054	C.1
  2450	2	 3.65256	 14.4832	-6.36104	C.1
  2451	1	 14.5079	-6.12688	 17.1196	N.3
  2452	2	 14.4247	-7.03876	  17.738	C.1
  2453	2	 13.7776	-6.95405	 17.0616	C.1
  2454	2	 15.5548	-6.15499	 16.7676	C.1
  2455	2	 14.9077	-6.07028	 16.0911	C.1
  2456	2	 14.5147	-5.31395	 17.8679	C.1
  2457	2	 13.8676	-5.22923	 17.1914	C.1
  2458	1	-17.9703	 -7.3526	 11.5279	N.3
  2459	2	-18.6107	-6.92002	 12.3176	C.1
  2460	2	 -19.019	-7.58202	 11.7897	C.1
  2461	2	-17.0726	-7.68089	 12.0822	C.1
  2462	2	-17.4809	-8.34288	 11.5543	C.1
  2463	2	-17.6152	-6.46391	 10.9756	C.1
  2464	2	-18.0235	 -7.1259	 10.4478	C.1
  2465	1	 16.9398	 16.3834	-14.0141	N.3
  2466	2	 17.8973	 16.4251	-14.5639	C.1
  2467	2	 17.7978	 17.0675	 -13.885	C.1
  2468	2	 16.8871	 15.3321	 -13.678	C.1
  2469	2	 16.7876	 15.9745	 -12.999	C.1
  2470	2	 16.1842	 16.4293	 -14.819	C.1
  2471	2	 16.0847	 17.0717	  -14.14	C.1
  2472	1	-9.86429	 15.2626	 12.5745	N.3
  2473	2	-10.3463	 16.0631	 13.1641	C.1
  2474	2	-10.5715	 15.1872	 13.4201	C.1
  2475	2	-8.78972	 15.5106	 12.6428	C.1
  2476	2	-9.01497	 14.6346	 12.8988	C.1
  2477	2	 -10.119	  15.528	 11.5326	C.1
  2478	2	-10.3442	  14.652	 11.7885	C.1
  2479	1	-8.95861	-14.8515	 -17.063	N.3
  2480	2	-9.04327	-15.8733	-16.6511	C.1
  2481	2	-9.76321	 -15.302	-16.4542	C.1
  2482	2	-8.77852	-15.0269	-18.1389	C.1
  2483	2	-9.49846	-14.4555	-17.9419	C.1
  2484	2	-7.97411	-14.5114	-16.6943	C.1
  2485	2	-8.69405	  -13.94	-16.4973	C.1
  2486	1	-19.8306	 6.54198	 -15.913	N.3
  2487	2	 -18.748	 6.35397	-16.0297	C.1
  2488	2	-19.1273	 6.92157	 -16.676	C.1
  2489	2	-19.9145	 6.89557	-14.8695	C.1
  2490	2	-20.2937	 7.46318	-15.5158	C.1
  2491	2	-20.2604	 5.52498	-15.8703	C.1
  2492	2	-20.6397	 6.09259	-16.5166	C.1
  2493	1	-5.82959	 -14.756	 3.68486	N.3
  2494	2	-5.25261	-15.1369	 4.54678	C.1
  2495	2	-5.61036	-14.2744	 4.65485	C.1
  2496	2	-6.57259	 -15.554	 3.50578	C.1
  2497	2	-6.93034	-14.6915	 3.61385	C.1
  2498	2	-5.12695	 -14.871	 2.83991	C.1
  2499	2	 -5.4847	-14.0084	 2.94797	C.1
  2500	1	-13.8478	-0.186317	 16.8197	N.3
  2501	2	 -14.916	0.0772502	  16.922	C.1
  2502	2	-14.7398	-0.680287	  16.394	C.1
  2503	2	-13.5027	-0.252876	 17.8673	C.1
  2504	2	-13.3266	-1.01041	 17.3394	C.1
  2505	2	 -13.389	0.752981	 16.4619	C.1
  2506	2	-13.2129	-0.00455581	  15.934	C.1
  2507	1	 7.58932	-5.46163	-4.35386	N.3
  2508	2	 7.99092	-4.64748	-3.72397	C.1
  2509	2	 7.47206	 -4.3677	-4.45616	C.1
  2510	2	 7.06612	-6.10874	-3.62697	C.1
  2511	2	 6.54726	-5.82897	-4.35916	C.1
  2512	2	 8.48921	-6.04835	-4.61236	C.1
  2513	2	 7.97035	-5.76857	-5.34455	C.1
  2514	1	-3.84938	-17.8993	-7.87865	N.3
  2515	2	-4.86278	-17.6471	-8.23961	C.1
  2516	2	-4.58633	-17.1852	  -7.469	C.1
  2517	2	-3.21733	-17.7444	-8.77159	C.1
  2518	2	-2.94088	-17.2825	-8.00098	C.1
  2519	2	 -3.8827	-18.9994	-7.78065	C.1
  2520	2	-3.60625	-18.5375	-7.01004	C.1
  2521	1	 4.74738	 3.73104	  15.143	N.3
  2522	2	 4.89695	 4.75741	 15.5239	C.1
  2523	2	 5.01224	 4.07435	 16.1593	C.1
  2524	2	 5.42664	 3.68305	 14.2728	C.1
  2525	2	 5.54193	 2.99999	 14.9082	C.1
  2526	2	 3.74561	 3.77725	 14.6791	C.1
  2527	2	 3.86089	 3.09419	 15.3145	C.1
  2528	1	 8.75225	-18.0048	-18.3035	N.3
  2529	2	  9.3501	-17.3587	-17.6356	C.1
  2530	2	 9.14876	-18.2105	-17.2929	C.1
  2531	2	 9.33246	-18.0016	-19.2438	C.1
  2532	2	 9.13111	-18.8534	-18.9011	C.1
  2533	2	  7.8762	-17.3763	-18.5452	C.1
  2534	2	 7.67486	-18.2281	-18.2025	C.1
  2535	1	  19.182	 14.2858	-2.38273	N.3
  2536	2	 19.4244	 13.2079	-2.36804	C.1
  2537	2	  20.159	 13.7844	-2.26049	C.1
  2538	2	 18.3953	 14.3784	-1.61246	C.1
  2539	2	 19.1299	 14.9549	-1.50492	C.1
  2540	2	 18.6245	 14.4065	  -3.329	C.1
  2541	2	 19.3591	  14.983	-3.22145	C.1
  2542	1	-19.3833	 -6.3094	-9.71866	N.3
  2543	2	-19.1289	-5.27855	-9.41285	C.1
  2544	2	-19.9994	-5.39265	 -9.7487	C.1
  2545	2	-19.1445	-6.90578	-8.81971	C.1
  2546	2	 -20.015	-7.01988	-9.15555	C.1
  2547	2	-18.5708	-6.57271	-10.4197	C.1
  2548	2	-19.4413	-6.68681	-10.7555	C.1
  2549	1	 8.28313	 5.96897	    17.9	N.3
  2550	2	 9.09684	 5.26454	 17.6498	C.1
  2551	2	   8.227	 4.92273	 17.5491	C.1
  2552	2	 8.51528	 6.85353	 17.2799	C.1
  2553	2	 7.64545	 6.51172	 17.1791	C.1
  2554	2	 8.54203	 6.30157	 18.9213	C.1
  2555	2	  7.6722	 5.95976	 18.8206	C.1
  2556	1	 -9.3918	-8.79007	-19.4072	N.3
  2557	2	-9.36554	-7.84333	-19.9763	C.1
  2558	2	-10.0102	-8.46443	 -20.263	C.1
  2559	2	-9.49711	-8.45265	-18.3603	C.1
  2560	2	-10.1418	-9.07375	 -18.647	C.1
  2561	2	-8.34571	-9.14257	-19.4549	C.1
  2562	2	-8.99041	-9.76368	-19.7416	C.1
  2563	1	-6.45541	-4.51341	 8.40593	N.3
  2564	2	-5.79176	-4.91043	 7.61672	C.1
  2565	2	 -6.1784	-5.55836	 8.17735	C.1
  2566	2	 -7.1734	 -3.8906	  7.8425	C.1
  2567	2	-7.56004	-4.53853	 8.40312	C.1
  2568	2	 -5.8211	 -3.7673	 8.91763	C.1
  2569	2	-6.20774	-4.41523	 9.47825	C.1
  2570	1	-4.36965	-15.2796	-7.96208	N.3
  2571	2	-4.50804	-15.4213	-6.87503	C.1
  2572	2	 -4.1471	-14.5908	-7.12724	C.1
  2573	2	-5.36994	-15.5023	-8.37521	C.1
  2574	2	  -5.009	-14.6718	-8.62741	C.1
  2575	2	-3.77238	-16.1609	-8.25768	C.1
  2576	2	-3.41144	-15.3304	-8.50989	C.1
  2577	1	-8.97684	 8.02652	 7.50143	N.3
  2578	2	-9.95305	 7.51854	 7.60077	C.1
  2579	2	-9.97505	  8.4519	 7.71008	C.1
  2580	2	-8.60882	 7.67678	 6.52005	C.1
  2581	2	-8.63082	 8.61014	 6.62936	C.1
  2582	2	-8.33566	 7.48419	  8.2195	C.1
  2583	2	-8.35766	 8.41756	  8.3288	C.1
  2584	1	-15.8425	-15.7713	 2.99861	N.3
  2585	2	-16.7235	-15.1363	  2.7949	C.1
  2586	2	-16.0176	-14.7084	 3.24454	C.1
  2587	2	-15.5881	-16.1773	 2.00296	C.1
  2588	2	-14.8822	-15.7494	 2.45259	C.1
  2589	2	-16.2748	-16.6422	 3.52352	C.1
  2590	2	-15.5689	-16.2143	 3.97316	C.1
  2591	1	 14.1301	 6.43207	 6.01075	N.3
  2592	2	 14.0885	 7.37809	 6.58014	C.1
  2593	2	 14.7069	 6.74613	 6.89936	C.1
  2594	2	 14.2969	 6.76962	 4.97195	C.1
  2595	2	 14.9152	 6.13766	 5.29116	C.1
  2596	2	 13.0774	 6.09644	 6.00132	C.1
  2597	2	 13.6958	 5.46448	 6.32054	C.1
  2598	1	 10.7304	-17.1211	 12.2609	N.3
  2599	2	 10.5363	-18.1458	 12.6258	C.1
  2600	2	 11.4309	-17.9639	 12.4018	C.1
  2601	2	 10.3068	-16.4845	 13.0585	C.1
  2602	2	 11.2014	-16.3026	 12.8346	C.1
  2603	2	 10.0063	-17.0058	 11.4344	C.1
  2604	2	 10.9009	-16.8238	 11.2105	C.1
  2605	1	 18.6905	 6.66564	 15.7076	N.3
  2606	2	 19.4212	 6.74772	 16.5324	C.1
  2607	2	 19.1923	 5.86969	 16.2869	C.1
  2608	2	 19.1454	 7.27445	 14.9056	C.1
  2609	2	 18.9164	 6.39642	 14.6601	C.1
  2610	2	 17.8482	 7.29181	 16.0532	C.1
  2611	2	 17.6193	 6.41378	 15.8077	C.1
  2612	1	 5.55033	-19.5204	-12.8436	N.3
  2613	2	 5.28577	 -20.137	-11.9656	C.1
  2614	2	 4.98631	-19.2465	-11.9338	C.1
  2615	2	 5.16889	-20.1145	-13.6935	C.1
  2616	2	 4.86942	 -19.224	-13.6617	C.1
  2617	2	 6.64553	-19.6456	-12.9193	C.1
  2618	2	 6.34607	-18.7551	-12.8875	C.1
  2619	1	 11.9729	 7.98821	 18.9786	N.3
  2620	2	 12.2036	 8.36557	 17.9661	C.1
  2621	2	 11.5395	 7.70135	 18.0035	C.1
  2622	2	  11.749	 8.90921	 19.5465	C.1
  2623	2	 11.0849	 8.24499	  19.584	C.1
  2624	2	 12.9622	 7.68618	 19.3671	C.1
  2625	2	 12.2981	 7.02195	 19.4046	C.1
  2626	1	 -17.565	-0.904967	 14.4194	N.3
  2627	2	-17.2002	 -1.5415	 13.5932	C.1
  2628	2	 -17.866	-0.921712	 13.3564	C.1
  2629	2	-16.6374	-0.465102	  14.828	C.1
  2630	2	-17.3033	0.154682	 14.5912	C.1
  2631	2	-17.8587	-1.63798	 15.1923	C.1
  2632	2	-18.5245	-1.01819	 14.9555	C.1
  2633	1	 17.5909	 17.5522	 17.9856	N.3
  2634	2	 16.8807	 18.3973	 18.0333	C.1
  2635	2	 17.6933	 18.5319	 18.4862	C.1
  2636	2	 17.6832	 17.3608	 16.9013	C.1
  2637	2	 18.4958	 17.4954	 17.3541	C.1
  2638	2	 16.9898	 16.6966	 18.3428	C.1
  2639	2	 17.8025	 16.8312	 18.7957	C.1
  2640	1	-1.75717	 13.9727	-14.3207	N.3
  2641	2	-2.39252	 13.5124	-13.5426	C.1
  2642	2	-2.49864	  13.158	-14.4068	C.1
  2643	2	-0.73943	 13.8868	-13.8991	C.1
  2644	2	-0.845549	 13.5324	-14.7633	C.1
  2645	2	-1.98037	 15.0505	 -14.224	C.1
  2646	2	-2.08649	 14.6962	-15.0881	C.1
  2647	1	 5.02779	-8.36241	-7.96912	N.3
  2648	2	  4.0298	-7.88973	 -7.9306	C.1
  2649	2	 4.68012	-7.41205	-8.41278	C.1
  2650	2	 4.81211	-9.37727	-8.34913	C.1
  2651	2	 5.46244	-8.89959	-8.83131	C.1
  2652	2	 5.26598	-8.53676	-6.90435	C.1
  2653	2	  5.9163	-8.05908	-7.38654	C.1
  2654	1	 -3.3864	 6.95797	 18.4434	N.3
  2655	2	 -4.4473	 7.24308	 18.5622	C.1
  2656	2	-3.89691	 7.43437	 19.2998	C.1
  2657	2	-3.09592	 7.45308	 17.4993	C.1
  2658	2	-2.54553	 7.64438	 18.2369	C.1
  2659	2	-3.44156	 5.89081	 18.1624	C.1
  2660	2	-2.89117	  6.0821	    18.9	C.1
  2661	1	 11.9843	-12.7367	 -12.905	N.3
  2662	2	 12.9764	-12.2529	-12.8542	C.1
  2663	2	 12.8878	-13.0378	-12.3447	C.1
  2664	2	 11.8185	-12.8598	-13.9904	C.1
  2665	2	 11.7299	-13.6447	-13.4808	C.1
  2666	2	 11.2909	  -11.92	-12.6346	C.1
  2667	2	 11.2023	-12.7049	 -12.125	C.1
  2668	1	 10.5674	-8.06564	-19.7681	N.3
  2669	2	 9.62541	-8.57158	-20.0468	C.1
  2670	2	 10.3797	-9.13028	-19.9967	C.1
  2671	2	 10.3059	-7.54377	  -18.83	C.1
  2672	2	 11.0601	-8.10247	-18.7799	C.1
  2673	2	 10.6394	-7.24352	-20.5028	C.1
  2674	2	 11.3937	-7.80222	-20.4527	C.1
  2675	1	-15.8522	-13.0929	 17.8521	N.3
  2676	2	-14.9257	-13.4346	 18.3478	C.1
  2677	2	-15.4429	-12.8257	 18.8431	C.1
  2678	2	-16.3615	-14.0377	 17.5898	C.1
  2679	2	-16.8787	-13.4288	  18.085	C.1
  2680	2	-15.4935	-12.7198	 16.8759	C.1
  2681	2	-16.0107	-12.1109	 17.3712	C.1
  2682	1	-4.32485	-2.98585	-2.40832	N.3
  2683	2	-5.27849	-2.44191	-2.28343	C.1
  2684	2	-4.52021	-2.00286	-1.94307	C.1
  2685	2	 -4.2967	-3.20083	-3.49177	C.1
  2686	2	-3.53842	-2.76178	-3.15141	C.1
  2687	2	-4.53678	-3.97339	-1.96032	C.1
  2688	2	 -3.7785	-3.53433	-1.61996	C.1
  2689	1	-16.6835	 19.7127	-9.76121	N.3
  2690	2	-15.9424	 19.0365	-10.2243	C.1
  2691	2	-16.0597	 19.8605	-10.6612	C.1
  2692	2	-16.3424	 19.7811	-8.71249	C.1
  2693	2	-16.4596	 20.6051	 -9.1494	C.1
  2694	2	-17.5898	 19.0845	-9.69152	C.1
  2695	2	-17.7071	 19.9085	-10.1284	C.1
  2696	1	 11.2741	-17.6157	 7.20473	N.3
  2697	2	 11.7005	-18.6347	 7.17803	C.1
  2698	2	 12.1431	-18.0018	 6.64212	C.1
  2699	2	 11.2476	-17.3812	 8.28416	C.1
  2700	2	 11.6902	-16.7483	 7.74825	C.1
  2701	2	 10.2102	-17.7805	 6.95588	C.1
  2702	2	 10.6528	-17.1476	 6.41997	C.1
  2703	1	-19.3021	-9.81433	 7.23188	N.3
  2704	2	-18.6762	-9.17247	 7.87772	C.1
  2705	2	-19.5774	-9.24157	  8.1358	C.1
  2706	2	-18.7454	-10.7685	 7.20848	C.1
  2707	2	-19.6467	-10.8376	 7.46657	C.1
  2708	2	-19.1329	-9.39838	 6.22233	C.1
  2709	2	-20.0341	-9.46749	 6.48041	C.1
  2710	1	  8.0198	0.778524	-19.3557	N.3
  2711	2	 7.09216	0.878605	-18.7637	C.1
  2712	2	 7.77483	 0.37764	-18.3556	C.1
  2713	2	 8.28244	 1.82531	-19.5926	C.1
  2714	2	 8.96511	 1.32434	-19.1844	C.1
  2715	2	  7.6608	0.383109	-20.3229	C.1
  2716	2	 8.34346	-0.117857	-19.9148	C.1
  2717	1	-13.4133	 5.06122	 5.50053	N.3
  2718	2	-12.6049	 5.80413	 5.37583	C.1
  2719	2	-13.4772	 6.15267	 5.34069	C.1
  2720	2	-13.1472	 4.55474	 6.44581	C.1
  2721	2	-14.0195	 4.90328	 6.41067	C.1
  2722	2	-13.1792	 4.30199	 4.73265	C.1
  2723	2	-14.0515	 4.65053	 4.69751	C.1
  2724	1	 4.59034	-0.654029	 11.8975	N.3
  2725	2	  5.6313	-0.963472	 12.1013	C.1
  2726	2	  5.4878	-0.0348214	 12.0765	C.1
  2727	2	 4.01019	-1.19893	 12.6639	C.1
  2728	2	 3.86669	-0.270284	 12.6391	C.1
  2729	2	 4.34476	-1.19266	 10.9646	C.1
  2730	2	 4.20126	-0.264005	 10.9398	C.1
  2731	1	 18.4519	-17.0772	-15.7381	N.3
  2732	2	 17.4083	-16.7143	-15.7345	C.1
  2733	2	 17.6303	   -17.3	-15.0336	C.1
  2734	2	 19.0434	-16.1447	-15.7766	C.1
  2735	2	 19.2655	-16.7304	-15.0757	C.1
  2736	2	  18.571	 -17.494	-16.7544	C.1
  2737	2	 18.7931	-18.0797	-16.0535	C.1
  2738	1	 17.9655	-11.9299	 16.8894	N.3
  2739	2	  18.669	-12.2803	 17.6661	C.1
  2740	2	 18.8084	-11.3997	 17.3682	C.1
  2741	2	 16.9753	-12.1224	 17.3402	C.1
  2742	2	 17.1146	-11.2418	 17.0424	C.1
  2743	2	 18.0432	-12.7079	 16.1087	C.1
  2744	2	 18.1825	-11.8273	 15.8109	C.1
  2745	1	-15.8668	 3.49643	-19.6326	N.3
  2746	2	-16.2443	 2.72589	-18.9364	C.1
  2747	2	-16.3916	 3.61445	-18.6675	C.1
  2748	2	-16.3283	  3.2143	 -20.596	C.1
  2749	2	-16.4757	 4.10286	-20.3271	C.1
  2750	2	-14.8067	 3.21625	-19.7687	C.1
  2751	2	 -14.954	 4.10481	-19.4998	C.1
  2752	1	-8.08268	   4.401	-7.87896	N.3
  2753	2	-7.25463	 4.85554	-8.45222	C.1
  2754	2	-8.09357	  5.2627	-8.57052	C.1
  2755	2	-7.70201	 4.40168	-6.84168	C.1
  2756	2	-8.54095	 4.80885	-6.95999	C.1
  2757	2	  -8.033	 3.33504	-8.16552	C.1
  2758	2	-8.87194	  3.7422	-8.28382	C.1
  2759	1	  4.0083	-14.3876	-10.4103	N.3
  2760	2	 4.48744	-13.5854	-9.82054	C.1
  2761	2	 5.08015	-14.1907	-10.2279	C.1
  2762	2	 3.35199	 -13.833	-11.1048	C.1
  2763	2	  3.9447	-14.4382	-11.5122	C.1
  2764	2	 3.29642	-14.8366	-9.69437	C.1
  2765	2	 3.88913	-15.4419	-10.1017	C.1
  2766	1	-0.458772	 15.5493	  7.5459	N.3
  2767	2	-0.317196	  14.725	 8.26802	C.1
  2768	2	0.470245	 15.0436	 7.86549	C.1
  2769	2	-1.02643	 16.2988	 8.12625	C.1
  2770	2	-0.238987	 16.6174	 7.72372	C.1
  2771	2	-1.21385	 15.1461	 6.84722	C.1
  2772	2	-0.426413	 15.4647	 6.44469	C.1
  2773	1	-11.1918	 1.71888	-12.3393	N.3
  2774	2	-11.6532	0.715069	-12.3176	C.1
  2775	2	-12.1604	   1.397	-11.9161	C.1
  2776	2	-10.9657	 1.86982	-13.4102	C.1
  2777	2	 -11.473	 2.55176	-13.0087	C.1
  2778	2	-10.1958	 1.54883	-11.8923	C.1
  2779	2	-10.7031	 2.23077	-11.4908	C.1
  2780	1	-11.6668	-5.93068	-15.9666	N.3
  2781	2	-10.6773	-5.61958	-16.3474	C.1
  2782	2	-10.6571	-6.24014	-15.6416	C.1
  2783	2	-12.1922	-6.27127	 -16.877	C.1
  2784	2	 -12.172	-6.89183	-16.1713	C.1
  2785	2	-12.1613	-4.97034	 -15.734	C.1
  2786	2	-12.1411	 -5.5909	-15.0283	C.1
  2787	1	-7.74952	 3.14653	 12.8092	N.3
  2788	2	-8.00939	 3.53366	 11.8074	C.1
  2789	2	-8.12125	 4.14415	 12.5134	C.1
  2790	2	-6.72049	 2.76736	 12.6743	C.1
  2791	2	-6.83235	 3.37784	 13.3803	C.1
  2792	2	-8.35089	 2.22285	 12.8868	C.1
  2793	2	-8.46275	 2.83334	 13.5928	C.1
  2794	1	 5.75721	-2.27418	 14.3788	N.3
  2795	2	 4.91403	-1.72008	 13.9283	C.1
  2796	2	 5.10812	-1.49672	 14.8205	C.1
  2797	2	 6.58138	-2.10622	 13.6622	C.1
  2798	2	 6.77547	-1.88286	 14.5545	C.1
  2799	2	 5.48509	-3.33127	 14.2074	C.1
  2800	2	 5.67918	-3.10791	 15.0996	C.1
@<TRIPOS>BOND
       1	       1	       2	 1
       2	       1	       3	 1
       3	       1	       4	 1
       4	       1	       5	 1
       5	       1	       6	 1
       6	       1	       7	 1
       7	       8	       9	 1
       8	       8	      10	 1
       9	       8	      11	 1
      10	       8	      12	 1
      11	       8	      13	 1
      12	       8	      14	 1
      13	      15	      16	 1
      14	      15	      17	 1
      15	      15	      18	 1
      16	      15	      19	 1
      17	      15	      20	 1
      18	      15	      21	 1
      19	      22	      23	 1
      20	      22	      24	 1
      21	      22	      25	 1
      22	      22	      26	 1
      23	      22	      27	 1
      24	      22	      28	 1
      25	      29	      30	 1
      26	      29	      31	 1
      27	      29	      32	 1
      28	      29	      33	 1
      29	      29	      34	 1
      30	      29	      35	 1
      31	      36	      37	 1
      32	      36	      38	 1
      33	      36	      39	 1
      34	      36	      40	 1
      35	      36	      41	 1
      36	      36	      42	 1
      37	      43	      44	 1
      38	      43	      45	 1
      39	      43	      46	 1
      40	      43	      47	 1
      41	      43	      48	 1
      42	      43	      49	 1
      43	      50	      51	 1
      44	      50	      52	 1
      45	      50	      53	 1
      46	      50	      54	 1
      47	      50	      55	 1
      48	      50	      56	 1
      49	      57	      58	 1
      50	      57	      59	 1
      51	      57	      60	 1
      52	      57	      61	 1
      53	      57	      62	 1
      54	      57	      63	 1
      55	      64	      65	 1
      56	      64	      66	 1
      57	      64	      67	 1
      58	      64	      68	 1
      59	      64	      69	 1
      60	      64	      70	 1
      61	      71	      72	 1
      62	      71	      73	 1
      63	      71	      74	 1
      64	      71	      75	 1
      65	      71	      76	 1
      66	      71	      77	 1
      67	      78	      79	 1
      68	      78	      80	 1
      69	      78	      81	 1
      70	      78	      82	 1
      71	      78	      83	 1
      72	      78	      84	 1
      73	      85	      86	 1
      74	      85	      87	 1
      75	      85	      88	 1
      76	      85	      89	 1
      77	      85	      90	 1
      78	      85	      91	 1
      79	      92	      93	 1
      80	      92	      94	 1
      81	      92	      95	 1
      82	      92	      96	 1
      83	      92	      97	 1
      84	      92	      98	 1
      85	      99	     100	 1
      86	      99	     101	 1
      87	      99	     102	 1
      88	      99	     103	 1
      89	      99	     104	 1
      90	      99	     105	 1
      91	     106	     107	 1
      92	     106	     108	 1
      93	     106	     109	 1
      94	     106	     110	 1
      95	     106	     111	 1
      96	     106	     112	 1
      97	     113	     114	 1
      98	     113	     115	 1
      99	     113	     116	 1
     100	     113	     117	 1
     101	     113	     118	 1
     102	     113	     119	 1
     103	     120	     121	 1
     104	     120	     122	 1
     105	     120	     123	 1
     106	     120	     124	 1
     107	     120	     125	 1
     108	     120	     126	 1
     109	     127	     128	 1
     110	     127	     129	 1
     111	     127	     130	 1
     112	     127	     131	 1
     113	     127	     132	 1
     114	     127	     133	 1
     115	     134	     135	 1
     116	     134	     136	 1
     117	     134	     137	 1
     118	     134	     138	 1
     119	     134	     139	 1
     120	     134	     140	 1
     121	     141	     142	 1
     122	     141	     143	 1
     123	     141	     144	 1
     124	     141	     145	 1
     125	     141	     146	 1
     126	     141	     147	 1
     127	     148	     149	 1
     128	     148	     150	 1
     129	     148	     151	 1
     130	     148	     152	 1
     131	     148	     153	 1
     132	     148	     154	 1
     133	     155	     156	 1
     134	     155	     157	 1
     135	     155	     158	 1
     136	     155	     159	 1
     137	     155	     160	 1
     138	     155	     161	 1
     139	     162	     163	 1
     140	     162	     164	 1
     141	     162	     165	 1
     142	     162	     166	 1
     143	     162	     167	 1
     144	     162	     168	 1
     145	     169	     170	 1
     146	     169	     171	 1
     147	     169	     172	 1
     148	     169	     173	 1
     149	     169	     174	 1
     150	     169	     175	 1
     151	     176	     177	 1
     152	     176	     178	 1
     153	     176	     179	 1
     154	     176	     180	 1
     155	     176	     181	 1
     156	     176	     182	 1
     157	     183	     184	 1
     158	     183	     185	 1
     159	     183	     186	 1
     160	     183	     187	 1
     161	     183	     188	 1
     162	     183	     189	 1
     163	     190	     191	 1
     164	     190	     192	 1
     165	     190	     193	 1
     166	     190	     194	 1
     167	     190	     195	 1
     168	     190	     196	 1
     169	     197	     198	 1
     170	     197	     199	 1
     171	     197	     200	 1
     172	     197	     201	 1
     173	     197	     202	 1
     174	     197	     203	 1
     175	     204	     205	 1
     176	     204	     206	 1
     177	     204	     207	 1
     178	     204	     208	 1
     179	     204	     209	 1
     180	     204	     210	 1
     181	     211	     212	 1
     182	     211	     213	 1
     183	     211	     214	 1
     184	     211	     215	 1
     185	     211	     216	 1
     186	     211	     217	 1
     187	     218	     219	 1
     188	     218	     220	 1
     189	     218	     221	 1
     190	     218	     222	 1
     191	     218	     223	 1
     192	     218	     224	 1
     193	     225	     226	 1
     194	     225	     227	 1
     195	     225	     228	 1
     196	     225	     229	 1
     197	     225	     230	 1
     198	     225	     231	 1
     199	     232	     233	 1
     200	     232	     234	 1
     201	     232	     235	 1
     202	     232	     236	 1
     203	     232	     237	 1
     204	     232	     238	 1
     205	     239	     240	 1
     206	     239	     241	 1
     207	     239	     242	 1
     208	     239	     243	 1
     209	     239	     244	 1
     210	     239	     245	 1
     211	     246	     247	 1
     212	     246	     248	 1
     213	     246	     249	 1
     214	     246	     250	 1
     215	     246	     251	 1
     216	     246	     252	 1
     217	     253	     254	 1
     218	     253	     255	 1
     219	     253	     256	 1
     220	     253	     257	 1
     221	     253	     258	 1
     222	     253	     259	 1
     223	     260	     261	 1
     224	     260	     262	 1
     225	     260	     263	 1
     226	     260	     264	 1
     227	     260	     265	 1
     228	     260	     266	 1
     229	     267	     268	 1
     230	     267	     269	 1
     231	     267	     270	 1
     232	     267	     271	 1
     233	     267	     272	 1
     234	     267	     273	 1
     235	     274	     275	 1
     236	     274	     276	 1
     237	     274	     277	 1
     238	     274	     278	 1
     239	     274	     279	 1
     240	     274	     280	 1
     241	     281	     282	 1
     242	     281	     283	 1
     243	     281	     284	 1
     244	     281	     285	 1
     245	     281	     286	 1
     246	     281	     287	 1
     247	     288	     289	 1
     248	     288	     290	 1
     249	     288	     291	 1
     250	     288	     292	 1
     251	     288	     293	 1
     252	     288	     294	 1
     253	     295	     296	 1
     254	     295	     297	 1
     255	     295	     298	 1
     256	     295	     299	 1
     257	     295	     300	 1
     258	     295	     301	 1
     259	     302	     303	 1
     260	     302	     304	 1
     261	     302	     305	 1
     262	     302	     306	 1
     263	     302	     307	 1
     264	     302	     308	 1
     265	     309	     310	 1
     266	     309	     311	 1
     267	     309	     312	 1
     268	     309	     313	 1
     269	     309	     314	 1
     270	     309	     315	 1
     271	     316	     317	 1
     272	     316	     318	 1
     273	     316	     319	 1
     274	     316	     320	 1
     275	     316	     321	 1
     276	     316	     322	 1
     277	     323	     324	 1
     278	     323	     325	 1
     279	     323	     326	 1
     280	     323	     327	 1
     281	     323	     328	 1
     282	     323	     329	 1
     283	     330	     331	 1
     284	     330	     332	 1
     285	     330	     333	 1
     286	     330	     334	 1
     287	     330	     335	 1
     288	     330	     336	 1
     289	     337	     338	 1
     290	     337	     339	 1
     291	     337	     340	 1
     292	     337	     341	 1
     293	     337	     342	 1
     294	     337	     343	 1
     295	     344	     345	 1
     296	     344	     346	 1
     297	     344	     347	 1
     298	     344	     348	 1
     299	     344	     349	 1
     300	     344	     350	 1
     301	     351	     352	 1
     302	     351	     353	 1
     303	     351	     354	 1
     304	     351	     355	 1
     305	     351	     356	 1
     306	     351	     357	 1
     307	     358	     359	 1
     308	     358	     360	 1
     309	     358	     361	 1
     310	     358	     362	 1
     311	     358	     363	 1
     312	     358	     364	 1
     313	     365	     366	 1
     314	     365	     367	 1
     315	     365	     368	 1
     316	     365	     369	 1
     317	     365	     370	 1
     318	     365	     371	 1
     319	     372	     373	 1
     320	     372	     374	 1
     321	     372	     375	 1
     322	     372	     376	 1
     323	     372	     377	 1
     324	     372	     378	 1
     325	     379	     380	 1
     326	     379	     381	 1
     327	     379	     382	 1
     328	     379	     383	 1
     329	     379	     384	 1
     330	     379	     385	 1
     331	     386	     387	 1
     332	     386	     388	 1
     333	     386	     389	 1
     334	     386	     390	 1
     335	     386	     391	 1
     336	     386	     392	 1
     337	     393	     394	 1
     338	     393	     395	 1
     339	     393	     396	 1
     340	     393	     397	 1
     341	     393	     398	 1
     342	     393	     399	 1
     343	     400	     401	 1
     344	     400	     402	 1
     345	     400	     403	 1
     346	     400	     404	 1
     347	     400	     405	 1
     348	     400	     406	 1
     349	     407	     408	 1
     350	     407	     409	 1
     351	     407	     410	 1
     352	     407	     411	 1
     353	     407	     412	 1
     354	     407	     413	 1
     355	     414	     415	 1
     356	     414	     416	 1
     357	     414	     417	 1
     358	     414	     418	 1
     359	     414	     419	 1
     360	     414	     420	 1
     361	     421	     422	 1
     362	     421	     423	 1
     363	     421	     424	 1
     364	     421	     425	 1
     365	     421	     426	 1
     366	     421	     427	 1
     367	     428	     429	 1
     368	     428	     430	 1
     369	     428	     431	 1
     370	     428	     432	 1
     371	     428	     433	 1
     372	     428	     434	 1
     373	     435	     436	 1
     374	     435	     437	 1
     375	     435	     438	 1
     376	     435	     439	 1
     377	     435	     440	 1
     378	     435	     441	 1
     379	     442	     443	 1
     380	     442	     444	 1
     381	     442	     445	 1
     382	     442	     446	 1
     383	     442	     447	 1
     384	     442	     448	 1
     385	     449	     450	 1
     386	     449	     451	 1
     387	     449	     452	 1
     388	     449	     453	 1
     389	     449	     454	 1
     390	     449	     455	 1
     391	     456	     457	 1
     392	     456	     458	 1
     393	     456	     459	 1
     394	     456	     460	 1
     395	     456	     461	 1
     396	     456	     462	 1
     397	     463	     464	 1
     398	     463	     465	 1
     399	     463	     466	 1
     400	     463	     467	 1
     401	     463	     468	 1
     402	     463	     469	 1
     403	     470	     471	 1
     404	     470	     472	 1
     405	     470	     473	 1
     406	     470	     474	 1
     407	     470	     475	 1
     408	     470	     476	 1
     409	     477	     478	 1
     410	     477	     479	 1
     411	     477	     480	 1
     412	     477	     481	 1
     413	     477	     482	 1
     414	     477	     483	 1
     415	     484	     485	 1
     416	     484	     486	 1
     417	     484	     487	 1
     418	     484	     488	 1
     419	     484	     489	 1
     420	     484	     490	 1
     421	     491	     492	 1
     422	     491	     493	 1
     423	     491	     494	 1
     424	     491	     495	 1
     425	     491	     496	 1
     426	     491	     497	 1
     427	     498	     499	 1
     428	     498	     500	 1
     429	     498	     501	 1
     430	     498	     502	 1
     431	     498	     503	 1
     432	     498	     504	 1
     433	     505	     506	 1
     434	     505	     507	 1
     435	     505	     508	 1
     436	     505	     509	 1
     437	     505	     510	 1
     438	     505	     511	 1
     439	     512	     513	 1
     440	     512	     514	 1
     441	     512	     515	 1
     442	     512	     516	 1
     443	     512	     517	 1
     444	     512	     518	 1
     445	     519	     520	 1
     446	     519	     521	 1
     447	     519	     522	 1
     448	     519	     523	 1
     449	     519	     524	 1
     450	     519	     525	 1
     451	     526	     527	 1
     452	     526	     528	 1
     453	     526	     529	 1
     454	     526	     530	 1
     455	     526	     531	 1
     456	     526	     532	 1
     457	     533	     534	 1
     458	     533	     535	 1
     459	     533	     536	 1
     460	     533	     537	 1
     461	     533	     538	 1
     462	     533	     539	 1
     463	     540	     541	 1
     464	     540	     542	 1
     465	     540	     543	 1
     466	     540	     544	 1
     467	     540	     545	 1
     468	     540	     546	 1
     469	     547	     548	 1
     470	     547	     549	 1
     471	     547	     550	 1
     472	     547	     551	 1
     473	     547	     552	 1
     474	     547	     553	 1
     475	     554	     555	 1
     476	     554	     556	 1
     477	     554	     557	 1
     478	     554	     558	 1
     479	     554	     559	 1
     480	     554	     560	 1
     481	     561	     562	 1
     482	     561	     563	 1
     483	     561	     564	 1
     484	     561	     565	 1
     485	     561	     566	 1
     486	     561	     567	 1
     487	     568	     569	 1
     488	     568	     570	 1
     489	     568	     571	 1
     490	     568	     572	 1
     491	     568	     573	 1
     492	     568	     574	 1
     493	     575	     576	 1
     494	     575	     577	 1
     495	     575	     578	 1
     496	     575	     579	 1
     497	     575	     580	 1
     498	     575	     581	 1
     499	     582	     583	 1
     500	     582	     584	 1
     501	     582	     585	 1
     502	     582	     586	 1
     503	     582	     587	 1
     504	     582	     588	 1
     505	     589	     590	 1
     506	     589	     591	 1
     507	     589	     592	 1
     508	     589	     593	 1
     509	     589	     594	 1
     510	     589	     595	 1
     511	     596	     597	 1
     512	     596	     598	 1
     513	     596	     599	 1
     514	     596	     600	 1
     515	     596	     601	 1
     516	     596	     602	 1
     517	     603	     604	 1
     518	     603	     605	 1
     519	     603	     606	 1
     520	     603	     607	 1
     521	     603	     608	 1
     522	     603	     609	 1
     523	     610	     611	 1
     524	     610	     612	 1
     525	     610	     613	 1
     526	     610	     614	 1
     527	     610	     615	 1
     528	     610	     616	 1
     529	     617	     618	 1
     530	     617	     619	 1
     531	     617	     620	 1
     532	     617	     621	 1
     533	     617	     622	 1
     534	     617	     623	 1
     535	     624	     625	 1
     536	     624	     626	 1
     537	     624	     627	 1
     538	     624	     628	 1
     539	     624	     629	 1
     540	     624	     630	 1
     541	     631	     632	 1
     542	     631	     633	 1
     543	     631	     634	 1
     544	     631	     635	 1
     545	     631	     636	 1
     546	     631	     637	 1
     547	     638	     639	 1
     548	     638	     640	 1
     549	     638	     641	 1
     550	     638	     642	 1
     551	     638	     643	 1
     552	     638	     644	 1
     553	     645	     646	 1
     554	     645	     647	 1
     555	     645	     648	 1
     556	     645	     649	 1
     557	     645	     650	 1
     558	     645	     651	 1
     559	     652	     653	 1
     560	     652	     654	 1
     561	     652	     655	 1
     562	     652	     656	 1
     563	     652	     657	 1
     564	     652	     658	 1
     565	     659	     660	 1
     566	     659	     661	 1
     567	     659	     662	 1
     568	     659	     663	 1
     569	     659	     664	 1
     570	     659	     665	 1
     571	     666	     667	 1
     572	     666	     668	 1
     573	     666	     669	 1
     574	     666	     670	 1
     575	     666	     671	 1
     576	     666	     672	 1
     577	     673	     674	 1
     578	     673	     675	 1
     579	     673	     676	 1
     580	     673	     677	 1
     581	     673	     678	 1
     582	     673	     679	 1
     583	     680	     681	 1
     584	     680	     682	 1
     585	     680	     683	 1
     586	     680	     684	 1
     587	     680	     685	 1
     588	     680	     686	 1
     589	     687	     688	 1
     590	     687	     689	 1
     591	     687	     690	 1
     592	     687	     691	 1
     593	     687	     692	 1
     594	     687	     693	 1
     595	     694	     695	 1
     596	     694	     696	 1
     597	     694	     697	 1
     598	     694	     698	 1
     599	     694	     699	 1
     600	     694	     700	 1
     601	     701	     702	 1
     602	     701	     703	 1
     603	     701	     704	 1
     604	     701	     705	 1
     605	     701	     706	 1
     606	     701	     707	 1
     607	     708	     709	 1
     608	     708	     710	 1
     609	     708	     711	 1
     610	     708	     712	 1
     611	     708	     713	 1
     612	     708	     714	 1
     613	     715	     716	 1
     614	     715	     717	 1
     615	     715	     718	 1
     616	     715	     719	 1
     617	     715	     720	 1
     618	     715	     721	 1
     619	     722	     723	 1
     620	     722	     724	 1
     621	     722	     725	 1
     622	     722	     726	 1
     623	     722	     727	 1
     624	     722	     728	 1
     625	     729	     730	 1
     626	     729	     731	 1
     627	     729	     732	 1
     628	     729	     733	 1
     629	     729	     734	 1
     630	     729	     735	 1
     631	     736	     737	 1
     632	     736	     738	 1
     633	     736	     739	 1
     634	     736	     740	 1
     635	     736	     741	 1
     636	     736	     742	 1
     637	     743	     744	 1
     638	     743	     745	 1
     639	     743	     746	 1
     640	     743	     747	 1
     641	     743	     748	 1
     642	     743	     749	 1
     643	     750	     751	 1
     644	     750	     752	 1
     645	     750	     753	 1
     646	     750	     754	 1
     647	     750	     755	 1
     648	     750	     756	 1
     649	     757	     758	 1
     650	     757	     759	 1
     651	     757	     760	 1
     652	     757	     761	 1
     653	     757	     762	 1
     654	     757	     763	 1
     655	     764	     765	 1
     656	     764	     766	 1
     657	     764	     767	 1
     658	     764	     768	 1
     659	     764	     769	 1
     660	     764	     770	 1
     661	     771	     772	 1
     662	     771	     773	 1
     663	     771	     774	 1
     664	     771	     775	 1
     665	     771	     776	 1
     666	     771	     777	 1
     667	     778	     779	 1
     668	     778	     780	 1
     669	     778	     781	 1
     670	     778	     782	 1
     671	     778	     783	 1
     672	     778	     784	 1
     673	     785	     786	 1
     674	     785	     787	 1
     675	     785	     788	 1
     676	     785	     789	 1
     677	     785	     790	 1
     678	     785	     791	 1
     679	     792	     793	 1
     680	     792	     794	 1
     681	     792	     795	 1
     682	     792	     796	 1
     683	     792	     797	 1
     684	     792	     798	 1
     685	     799	     800	 1
     686	     799	     801	 1
     687	     799	     802	 1
     688	     799	     803	 1
     689	     799	     804	 1
     690	     799	     805	 1
     691	     806	     807	 1
     692	     806	     808	 1
     693	     806	     809	 1
     694	     806	     810	 1
     695	     806	     811	 1
     696	     806	     812	 1
     697	     813	     814	 1
     698	     813	     815	 1
     699	     813	     816	 1
     700	     813	     817	 1
     701	     813	     818	 1
     702	     813	     819	 1
     703	     820	     821	 1
     704	     820	     822	 1
     705	     820	     823	 1
     706	     820	     824	 1
     707	     820	     825	 1
     708	     820	     826	 1
     709	     827	     828	 1
     710	     827	     829	 1
     711	     827	     830	 1
     712	     827	     831	 1
     713	     827	     832	 1
     714	     827	     833	 1
     715	     834	     835	 1
     716	     834	     836	 1
     717	     834	     837	 1
     718	     834	     838	 1
     719	     834	     839	 1
     720	     834	     840	 1
     721	     841	     842	 1
     722	     841	     843	 1
     723	     841	     844	 1
     724	     841	     845	 1
     725	     841	     846	 1
     726	     841	     847	 1
     727	     848	     849	 1
     728	     848	     850	 1
     729	     848	     851	 1
     730	     848	     852	 1
     731	     848	     853	 1
     732	     848	     854	 1
     733	     855	     856	 1
     734	     855	     857	 1
     735	     855	     858	 1
     736	     855	     859	 1
     737	     855	     860	 1
     738	     855	     861	 1
     739	     862	     863	 1
     740	     862	     864	 1
     741	     862	     865	 1
     742	     862	     866	 1
     743	     862	     867	 1
     744	     862	     868	 1
     745	     869	     870	 1
     746	     869	     871	 1
     747	     869	     872	 1
     748	     869	     873	 1
     749	     869	     874	 1
     750	     869	     875	 1
     751	     876	     877	 1
     752	     876	     878	 1
     753	     876	     879	 1
     754	     876	     880	 1
     755	     876	     881	 1
     756	     876	     882	 1
     757	     883	     884	 1
     758	     883	     885	 1
     759	     883	     886	 1
     760	     883	     887	 1
     761	     883	     888	 1
     762	     883	     889	 1
     763	     890	     891	 1
     764	     890	     892	 1
     765	     890	     893	 1
     766	     890	     894	 1
     767	     890	     895	 1
     768	     890	     896	 1
     769	     897	     898	 1
     770	     897	     899	 1
     771	     897	     900	 1
     772	     897	     901	 1
     773	     897	     902	 1
     774	     897	     903	 1
     775	     904	     905	 1
     776	     904	     906	 1
     777	     904	     907	 1
     778	     904	     908	 1
     779	     904	     909	 1
     780	     904	     910	 1
     781	     911	     912	 1
     782	     911	     913	 1
     783	     911	     914	 1
     784	     911	     915	 1
     785	     911	     916	 1
     786	     911	     917	 1
     787	     918	     919	 1
     788	     918	     920	 1
     789	     918	     921	 1
     790	     918	     922	 1
     791	     918	     923	 1
     792	     918	     924	 1
     793	     925	     926	 1
     794	     925	     927	 1
     795	     925	     928	 1
     796	     925	     929	 1
     797	     925	     930	 1
     798	     925	     931	 1
     799	     932	     933	 1
     800	     932	     934	 1
     801	     932	     935	 1
     802	     932	     936	 1
     803	     932	     937	 1
     804	     932	     938	 1
     805	     939	     940	 1
     806	     939	     941	 1
     807	     939	     942	 1
     808	     939	     943	 1
     809	     939	     944	 1
     810	     939	     945	 1
     811	     946	     947	 1
     812	     946	     948	 1
     813	     946	     949	 1
     814	     946	     950	 1
     815	     946	     951	 1
     816	     946	     952	 1
     817	     953	     954	 1
     818	     953	     955	 1
     819	     953	     956	 1
     820	     953	     957	 1
     821	     953	     958	 1
     822	     953	     959	 1
     823	     960	     961	 1
     824	     960	     962	 1
     825	     960	     963	 1
     826	     960	     964	 1
     827	     960	     965	 1
     828	     960	     966	 1
     829	     967	     968	 1
     830	     967	     969	 1
     831	     967	     970	 1
     832	     967	     971	 1
     833	     967	     972	 1
     834	     967	     973	 1
     835	     974	     975	 1
     836	     974	     976	 1
     837	     974	     977	 1
     838	     974	     978	 1
     839	     974	     979	 1
     840	     974	     980	 1
     841	     981	     982	 1
     842	     981	     983	 1
     843	     981	     984	 1
     844	     981	     985	 1
     845	     981	     986	 1
     846	     981	     987	 1
     847	     988	     989	 1
     848	     988	     990	 1
     849	     988	     991	 1
     850	     988	     992	 1
     851	     988	     993	 1
     852	     988	     994	 1
     853	     995	     996	 1
     854	     995	     997	 1
     855	     995	     998	 1
     856	     995	     999	 1
     857	     995	    1000	 1
     858	     995	    1001	 1
     859	    1002	    1003	 1
     860	    1002	    1004	 1
     861	    1002	    1005	 1
     862	    1002	    1006	 1
     863	    1002	    1007	 1
     864	    1002	    1008	 1
     865	    1009	    1010	 1
     866	    1009	    1011	 1
     867	    1009	    1012	 1
     868	    1009	    1013	 1
     869	    1009	    1014	 1
     870	    1009	    1015	 1
     871	    1016	    1017	 1
     872	    1016	    1018	 1
     873	    1016	    1019	 1
     874	    1016	    1020	 1
     875	    1016	    1021	 1
     876	    1016	    1022	 1
     877	    1023	    1024	 1
     878	    1023	    1025	 1
     879	    1023	    1026	 1
     880	    1023	    1027	 1
     881	    1023	    1028	 1
     882	    1023	    1029	 1
     883	    1030	    1031	 1
     884	    1030	    1032	 1
     885	    1030	    1033	 1
     886	    1030	    1034	 1
     887	    1030	    1035	 1
     888	    1030	    1036	 1
     889	    1037	    1038	 1
     890	    1037	    1039	 1
     891	    1037	    1040	 1
     892	    1037	    1041	 1
     893	    1037	    1042	 1
     894	    1037	    1043	 1
     895	    1044	    1045	 1
     896	    1044	    1046	 1
     897	    1044	    1047	 1
     898	    1044	    1048	 1
     899	    1044	    1049	 1
     900	    1044	    1050	 1
     901	    1051	    1052	 1
     902	    1051	    1053	 1
     903	    1051	    1054	 1
     904	    1051	    1055	 1
     905	    1051	    1056	 1
     906	    1051	    1057	 1
     907	    1058	    1059	 1
     908	    1058	    1060	 1
     909	    1058	    1061	 1
     910	    1058	    1062	 1
     911	    1058	    1063	 1
     912	    1058	    1064	 1
     913	    1065	    1066	 1
     914	    1065	    1067	 1
     915	    1065	    1068	 1
     916	    1065	    1069	 1
     917	    1065	    1070	 1
     918	    1065	    1071	 1
     919	    1072	    1073	 1
     920	    1072	    1074	 1
     921	    1072	    1075	 1
     922	    1072	    1076	 1
     923	    1072	    1077	 1
     924	    1072	    1078	 1
     925	    1079	    1080	 1
     926	    1079	    1081	 1
     927	    1079	    1082	 1
     928	    1079	    1083	 1
     929	    1079	    1084	 1
     930	    1079	    1085	 1
     931	    1086	    1087	 1
     932	    1086	    1088	 1
     933	    1086	    1089	 1
     934	    1086	    1090	 1
     935	    1086	    1091	 1
     936	    1086	    1092	 1
     937	    1093	    1094	 1
     938	    1093	    1095	 1
     939	    1093	    1096	 1
     940	    1093	    1097	 1
     941	    1093	    1098	 1
     942	    1093	    1099	 1
     943	    1100	    1101	 1
     944	    1100	    1102	 1
     945	    1100	    1103	 1
     946	    1100	    1104	 1
     947	    1100	    1105	 1
     948	    1100	    1106	 1
     949	    1107	    1108	 1
     950	    1107	    1109	 1
     951	    1107	    1110	 1
     952	    1107	    1111	 1
     953	    1107	    1112	 1
     954	    1107	    1113	 1
     955	    1114	    1115	 1
     956	    1114	    1116	 1
     957	    1114	    1117	 1
     958	    1114	    1118	 1
     959	    1114	    1119	 1
     960	    1114	    1120	 1
     961	    1121	    1122	 1
     962	    1121	    1123	 1
     963	    1121	    1124	 1
     964	    1121	    1125	 1
     965	    1121	    1126	 1
     966	    1121	    1127	 1
     967	    1128	    1129	 1
     968	    1128	    1130	 1
     969	    1128	    1131	 1
     970	    1128	    1132	 1
     971	    1128	    1133	 1
     972	    1128	    1134	 1
     973	    1135	    1136	 1
     974	    1135	    1137	 1
     975	    1135	    1138	 1
     976	    1135	    1139	 1
     977	    1135	    1140	 1
     978	    1135	    1141	 1
     979	    1142	    1143	 1
     980	    1142	    1144	 1
     981	    1142	    1145	 1
     982	    1142	    1146	 1
     983	    1142	    1147	 1
     984	    1142	    1148	 1
     985	    1149	    1150	 1
     986	    1149	    1151	 1
     987	    1149	    1152	 1
     988	    1149	    1153	 1
     989	    1149	    1154	 1
     990	    1149	    1155	 1
     991	    1156	    1157	 1
     992	    1156	    1158	 1
     993	    1156	    1159	 1
     994	    1156	    1160	 1
     995	    1156	    1161	 1
     996	    1156	    1162	 1
     997	    1163	    1164	 1
     998	    1163	    1165	 1
     999	    1163	    1166	 1
    1000	    1163	    1167	 1
    1001	    1163	    1168	 1
    1002	    1163	    1169	 1
    1003	    1170	    1171	 1
    1004	    1170	    1172	 1
    1005	    1170	    1173	 1
    1006	    1170	    1174	 1
    1007	    1170	    1175	 1
    1008	    1170	    1176	 1
    1009	    1177	    1178	 1
    1010	    1177	    1179	 1
    1011	    1177	    1180	 1
    1012	    1177	    1181	 1
    1013	    1177	    1182	 1
    1014	    1177	    1183	 1
    1015	    1184	    1185	 1
    1016	    1184	    1186	 1
    1017	    1184	    1187	 1
    1018	    1184	    1188	 1
    1019	    1184	    1189	 1
    1020	    1184	    1190	 1
    1021	    1191	    1192	 1
    1022	    1191	    1193	 1
    1023	    1191	    1194	 1
    1024	    1191	    1195	 1
    1025	    1191	    1196	 1
    1026	    1191	    1197	 1
    1027	    1198	    1199	 1
    1028	    1198	    1200	 1
    1029	    1198	    1201	 1
    1030	    1198	    1202	 1
    1031	    1198	    1203	 1
    1032	    1198	    1204	 1
    1033	    1205	    1206	 1
    1034	    1205	    1207	 1
    1035	    1205	    1208	 1
    1036	    1205	    1209	 1
    1037	    1205	    1210	 1
    1038	    1205	    1211	 1
    1039	    1212	    1213	 1
    1040	    1212	    1214	 1
    1041	    1212	    1215	 1
    1042	    1212	    1216	 1
    1043	    1212	    1217	 1
    1044	    1212	    1218	 1
    1045	    1219	    1220	 1
    1046	    1219	    1221	 1
    1047	    1219	    1222	 1
    1048	    1219	    1223	 1
    1049	    1219	    1224	 1
    1050	    1219	    1225	 1
    1051	    1226	    1227	 1
    1052	    1226	    1228	 1
    1053	    1226	    1229	 1
    1054	    1226	    1230	 1
    1055	    1226	    1231	 1
    1056	    1226	    1232	 1
    1057	    1233	    1234	 1
    1058	    1233	    1235	 1
    1059	    1233	    1236	 1
    1060	    1233	    1237	 1
    1061	    1233	    1238	 1
    1062	    1233	    1239	 1
    1063	    1240	    1241	 1
    1064	    1240	    1242	 1
    1065	    1240	    1243	 1
    1066	    1240	    1244	 1
    1067	    1240	    1245	 1
    1068	    1240	    1246	 1
    1069	    1247	    1248	 1
    1070	    1247	    1249	 1
    1071	    1247	    1250	 1
    1072	    1247	    1251	 1
    1073	    1247	    1252	 1
    1074	    1247	    1253	 1
    1075	    1254	    1255	 1
    1076	    1254	    1256	 1
    1077	    1254	    1257	 1
    1078	    1254	    1258	 1
    1079	    1254	    1259	 1
    1080	    1254	    1260	 1
    1081	    1261	    1262	 1
    1082	    1261	    1263	 1
    1083	    1261	    1264	 1
    1084	    1261	    1265	 1
    1085	    1261	    1266	 1
    1086	    1261	    1267	 1
    1087	    1268	    1269	 1
    1088	    1268	    1270	 1
    1089	    1268	    1271	 1
    1090	    1268	    1272	 1
    1091	    1268	    1273	 1
    1092	    1268	    1274	 1
    1093	    1275	    1276	 1
    1094	    1275	    1277	 1
    1095	    1275	    1278	 1
    1096	    1275	    1279	 1
    1097	    1275	    1280	 1
    1098	    1275	    1281	 1
    1099	    1282	    1283	 1
    1100	    1282	    1284	 1
    1101	    1282	    1285	 1
    1102	    1282	    1286	 1
    1103	    1282	    1287	 1
    1104	    1282	    1288	 1
    1105	    1289	    1290	 1
    1106	    1289	    1291	 1
    1107	    1289	    1292	 1
    1108	    1289	    1293	 1
    1109	    1289	    1294	 1
    1110	    1289	    1295	 1
    1111	    1296	    1297	 1
    1112	    1296	    1298	 1
    1113	    1296	    1299	 1
    1114	    1296	    1300	 1
    1115	    1296	    1301	 1
    1116	    1296	    1302	 1
    1117	    1303	    1304	 1
    1118	    1303	    1305	 1
    1119	    1303	    1306	 1
    1120	    1303	    1307	 1
    1121	    1303	    1308	 1
    1122	    1303	    1309	 1
    1123	    1310	    1311	 1
    1124	    1310	    1312	 1
    1125	    1310	    1313	 1
    1126	    1310	    1314	 1
    1127	    1310	    1315	 1
    1128	    1310	    1316	 1
    1129	    1317	    1318	 1
    1130	    1317	    1319	 1
    1131	    1317	    1320	 1
    1132	    1317	    1321	 1
    1133	    1317	    1322	 1
    1134	    1317	    1323	 1
    1135	    1324	    1325	 1
    1136	    1324	    1326	 1
    1137	    1324	    1327	 1
    1138	    1324	    1328	 1
    1139	    1324	    1329	 1
    1140	    1324	    1330	 1
    1141	    1331	    1332	 1
    1142	    1331	    1333	 1
    1143	    1331	    1334	 1
    1144	    1331	    1335	 1
    1145	    1331	    1336	 1
    1146	    1331	    1337	 1
    1147	    1338	    1339	 1
    1148	    1338	    1340	 1
    1149	    1338	    1341	 1
    1150	    1338	    1342	 1
    1151	    1338	    1343	 1
    1152	    1338	    1344	 1
    1153	    1345	    1346	 1
    1154	    1345	    1347	 1
    1155	    1345	    1348	 1
    1156	    1345	    1349	 1
    1157	    1345	    1350	 1
    1158	    1345	    1351	 1
    1159	    1352	    1353	 1
    1160	    1352	    1354	 1
    1161	    1352	    1355	 1
    1162	    1352	    1356	 1
    1163	    1352	    1357	 1
    1164	    1352	    1358	 1
    1165	    1359	    1360	 1
    1166	    1359	    1361	 1
    1167	    1359	    1362	 1
    1168	    1359	    1363	 1
    1169	    1359	    1364	 1
    1170	    1359	    1365	 1
    1171	    1366	    1367	 1
    1172	    1366	    1368	 1
    1173	    1366	    1369	 1
    1174	    1366	    1370	 1
    1175	    1366	    1371	 1
    1176	    1366	    1372	 1
    1177	    1373	    1374	 1
    1178	    1373	    1375	 1
    1179	    1373	    1376	 1
    1180	    1373	    1377	 1
    1181	    1373	    1378	 1
    1182	    1373	    1379	 1
    1183	    1380	    1381	 1
    1184	    1380	    1382	 1
    1185	    1380	    1383	 1
    1186	    1380	    1384	 1
    1187	    1380	    1385	 1
    1188	    1380	    1386	 1
    1189	    1387	    1388	 1
    1190	    1387	    1389	 1
    1191	    1387	    1390	 1
    1192	    1387	    1391	 1
    1193	    1387	    1392	 1
    1194	    1387	    1393	 1
    1195	    1394	    1395	 1
    1196	    1394	    1396	 1
    1197	    1394	    1397	 1
    1198	    1394	    1398	 1
    1199	    1394	    1399	 1
    1200	    1394	    1400	 1
    1201	    1401	    1402	 1
    1202	    1401	    1403	 1
    1203	    1401	    1404	 1
    1204	    1401	    1405	 1
    1205	    1401	    1406	 1
    1206	    1401	    1407	 1
    1207	    1408	    1409	 1
    1208	    1408	    1410	 1
    1209	    1408	    1411	 1
    1210	    1408	    1412	 1
    1211	    1408	    1413	 1
    1212	    1408	    1414	 1
    1213	    1415	    1416	 1
    1214	    1415	    1417	 1
    1215	    1415	    1418	 1
    1216	    1415	    1419	 1
    1217	    1415	    1420	 1
    1218	    1415	    1421	 1
    1219	    1422	    1423	 1
    1220	    1422	    1424	 1
    1221	    1422	    1425	 1
    1222	    1422	    1426	 1
    1223	    1422	    1427	 1
    1224	    1422	    1428	 1
    1225	    1429	    1430	 1
    1226	    1429	    1431	 1
    1227	    1429	    1432	 1
    1228	    1429	    1433	 1
    1229	    1429	    1434	 1
    1230	    1429	    1435	 1
    1231	    1436	    1437	 1
    1232	    1436	    1438	 1
    1233	    1436	    1439	 1
    1234	    1436	    1440	 1
    1235	    1436	    1441	 1
    1236	    1436	    1442	 1
    1237	    1443	    1444	 1
    1238	    1443	    1445	 1
    1239	    1443	    1446	 1
    1240	    1443	    1447	 1
    1241	    1443	    1448	 1
    1242	    1443	    1449	 1
    1243	    1450	    1451	 1
    1244	    1450	    1452	 1
    1245	    1450	    1453	 1
    1246	    1450	    1454	 1
    1247	    1450	    1455	 1
    1248	    1450	    1456	 1
    1249	    1457	    1458	 1
    1250	    1457	    1459	 1
    1251	    1457	    1460	 1
    1252	    1457	    1461	 1
    1253	    1457	    1462	 1
    1254	    1457	    1463	 1
    1255	    1464	    1465	 1
    1256	    1464	    1466	 1
    1257	    1464	    1467	 1
    1258	    1464	    1468	 1
    1259	    1464	    1469	 1
    1260	    1464	    1470	 1
    1261	    1471	    1472	 1
    1262	    1471	    1473	 1
    1263	    1471	    1474	 1
    1264	    1471	    1475	 1
    1265	    1471	    1476	 1
    1266	    1471	    1477	 1
    1267	    1478	    1479	 1
    1268	    1478	    1480	 1
    1269	    1478	    1481	 1
    1270	    1478	    1482	 1
    1271	    1478	    1483	 1
    1272	    1478	    1484	 1
    1273	    1485	    1486	 1
    1274	    1485	    1487	 1
    1275	    1485	    1488	 1
    1276	    1485	    1489	 1
    1277	    1485	    1490	 1
    1278	    1485	    1491	 1
    1279	    1492	    1493	 1
    1280	    1492	    1494	 1
    1281	    1492	    1495	 1
    1282	    1492	    1496	 1
    1283	    1492	    1497	 1
    1284	    1492	    1498	 1
    1285	    1499	    1500	 1
    1286	    1499	    1501	 1
    1287	    1499	    1502	 1
    1288	    1499	    1503	 1
    1289	    1499	    1504	 1
    1290	    1499	    1505	 1
    1291	    1506	    1507	 1
    1292	    1506	    1508	 1
    1293	    1506	    1509	 1
    1294	    1506	    1510	 1
    1295	    1506	    1511	 1
    1296	    1506	    1512	 1
    1297	    1513	    1514	 1
    1298	    1513	    1515	 1
    1299	    1513	    1516	 1
    1300	    1513	    1517	 1
    1301	    1513	    1518	 1
    1302	    1513	    1519	 1
    1303	    1520	    1521	 1
    1304	    1520	    1522	 1
    1305	    1520	    1523	 1
    1306	    1520	    1524	 1
    1307	    1520	    1525	 1
    1308	    1520	    1526	 1
    1309	    1527	    1528	 1
    1310	    1527	    1529	 1
    1311	    1527	    1530	 1
    1312	    1527	    1531	 1
    1313	    1527	    1532	 1
    1314	    1527	    1533	 1
    1315	    1534	    1535	 1
    1316	    1534	    1536	 1
    1317	    1534	    1537	 1
    1318	    1534	    1538	 1
    1319	    1534	    1539	 1
    1320	    1534	    1540	 1
    1321	    1541	    1542	 1
    1322	    1541	    1543	 1
    1323	    1541	    1544	 1
    1324	    1541	    1545	 1
    1325	    1541	    1546	 1
    1326	    1541	    1547	 1
    1327	    1548	    1549	 1
    1328	    1548	    1550	 1
    1329	    1548	    1551	 1
    1330	    1548	    1552	 1
    1331	    1548	    1553	 1
    1332	    1548	    1554	 1
    1333	    1555	    1556	 1
    1334	    1555	    1557	 1
    1335	    1555	    1558	 1
    1336	    1555	    1559	 1
    1337	    1555	    1560	 1
    1338	    1555	    1561	 1
    1339	    1562	    1563	 1
    1340	    1562	    1564	 1
    1341	    1562	    1565	 1
    1342	    1562	    1566	 1
    1343	    1562	    1567	 1
    1344	    1562	    1568	 1
    1345	    1569	    1570	 1
    1346	    1569	    1571	 1
    1347	    1569	    1572	 1
    1348	    1569	    1573	 1
    1349	    1569	    1574	 1
    1350	    1569	    1575	 1
    1351	    1576	    1577	 1
    1352	    1576	    1578	 1
    1353	    1576	    1579	 1
    1354	    1576	    1580	 1
    1355	    1576	    1581	 1
    1356	    1576	    1582	 1
    1357	    1583	    1584	 1
    1358	    1583	    1585	 1
    1359	    1583	    1586	 1
    1360	    1583	    1587	 1
    1361	    1583	    1588	 1
    1362	    1583	    1589	 1
    1363	    1590	    1591	 1
    1364	    1590	    1592	 1
    1365	    1590	    1593	 1
    1366	    1590	    1594	 1
    1367	    1590	    1595	 1
    1368	    1590	    1596	 1
    1369	    1597	    1598	 1
    1370	    1597	    1599	 1
    1371	    1597	    1600	 1
    1372	    1597	    1601	 1
    1373	    1597	    1602	 1
    1374	    1597	    1603	 1
    1375	    1604	    1605	 1
    1376	    1604	    1606	 1
    1377	    1604	    1607	 1
    1378	    1604	    1608	 1
    1379	    1604	    1609	 1
    1380	    1604	    1610	 1
    1381	    1611	    1612	 1
    1382	    1611	    1613	 1
    1383	    1611	    1614	 1
    1384	    1611	    1615	 1
    1385	    1611	    1616	 1
    1386	    1611	    1617	 1
    1387	    1618	    1619	 1
    1388	    1618	    1620	 1
    1389	    1618	    1621	 1
    1390	    1618	    1622	 1
    1391	    1618	    1623	 1
    1392	    1618	    1624	 1
    1393	    1625	    1626	 1
    1394	    1625	    1627	 1
    1395	    1625	    1628	 1
    1396	    1625	    1629	 1
    1397	    1625	    1630	 1
    1398	    1625	    1631	 1
    1399	    1632	    1633	 1
    1400	    1632	    1634	 1
    1401	    1632	    1635	 1
    1402	    1632	    1636	 1
    1403	    1632	    1637	 1
    1404	    1632	    1638	 1
    1405	    1639	    1640	 1
    1406	    1639	    1641	 1
    1407	    1639	    1642	 1
    1408	    1639	    1643	 1
    1409	    1639	    1644	 1
    1410	    1639	    1645	 1
    1411	    1646	    1647	 1
    1412	    1646	    1648	 1
    1413	    1646	    1649	 1
    1414	    1646	    1650	 1
    1415	    1646	    1651	 1
    1416	    1646	    1652	 1
    1417	    1653	    1654	 1
    1418	    1653	    1655	 1
    1419	    1653	    1656	 1
    1420	    1653	    1657	 1
    1421	    1653	    1658	 1
    1422	    1653	    1659	 1
    1423	    1660	    1661	 1
    1424	    1660	    1662	 1
    1425	    1660	    1663	 1
    1426	    1660	    1664	 1
    1427	    1660	    1665	 1
    1428	    1660	    1666	 1
    1429	    1667	    1668	 1
    1430	    1667	    1669	 1
    1431	    1667	    1670	 1
    1432	    1667	    1671	 1
    1433	    1667	    1672	 1
    1434	    1667	    1673	 1
    1435	    1674	    1675	 1
    1436	    1674	    1676	 1
    1437	    1674	    1677	 1
    1438	    1674	    1678	 1
    1439	    1674	    1679	 1
    1440	    1674	    1680	 1
    1441	    1681	    1682	 1
    1442	    1681	    1683	 1
    1443	    1681	    1684	 1
    1444	    1681	    1685	 1
    1445	    1681	    1686	 1
    1446	    1681	    1687	 1
    1447	    1688	    1689	 1
    1448	    1688	    1690	 1
    1449	    1688	    1691	 1
    1450	    1688	    1692	 1
    1451	    1688	    1693	 1
    1452	    1688	    1694	 1
    1453	    1695	    1696	 1
    1454	    1695	    1697	 1
    1455	    1695	    1698	 1
    1456	    1695	    1699	 1
    1457	    1695	    1700	 1
    1458	    1695	    1701	 1
    1459	    1702	    1703	 1
    1460	    1702	    1704	 1
    1461	    1702	    1705	 1
    1462	    1702	    1706	 1
    1463	    1702	    1707	 1
    1464	    1702	    1708	 1
    1465	    1709	    1710	 1
    1466	    1709	    1711	 1
    1467	    1709	    1712	 1
    1468	    1709	    1713	 1
    1469	    1709	    1714	 1
    1470	    1709	    1715	 1
    1471	    1716	    1717	 1
    1472	    1716	    1718	 1
    1473	    1716	    1719	 1
    1474	    1716	    1720	 1
    1475	    1716	    1721	 1
    1476	    1716	    1722	 1
    1477	    1723	    1724	 1
    1478	    1723	    1725	 1
    1479	    1723	    1726	 1
    1480	    1723	    1727	 1
    1481	    1723	    1728	 1
    1482	    1723	    1729	 1
    1483	    1730	    1731	 1
    1484	    1730	    1732	 1
    1485	    1730	    1733	 1
    1486	    1730	    1734	 1
    1487	    1730	    1735	 1
    1488	    1730	    1736	 1
    1489	    1737	    1738	 1
    1490	    1737	    1739	 1
    1491	    1737	    1740	 1
    1492	    1737	    1741	 1
    1493	    1737	    1742	 1
    1494	    1737	    1743	 1
    1495	    1744	    1745	 1
    1496	    1744	    1746	 1
    1497	    1744	    1747	 1
    1498	    1744	    1748	 1
    1499	    1744	    1749	 1
    1500	    1744	    1750	 1
    1501	    1751	    1752	 1
    1502	    1751	    1753	 1
    1503	    1751	    1754	 1
    1504	    1751	    1755	 1
    1505	    1751	    1756	 1
    1506	    1751	    1757	 1
    1507	    1758	    1759	 1
    1508	    1758	    1760	 1
    1509	    1758	    1761	 1
    1510	    1758	    1762	 1
    1511	    1758	    1763	 1
    1512	    1758	    1764	 1
    1513	    1765	    1766	 1
    1514	    1765	    1767	 1
    1515	    1765	    1768	 1
    1516	    1765	    1769	 1
    1517	    1765	    1770	 1
    1518	    1765	    1771	 1
    1519	    1772	    1773	 1
    1520	    1772	    1774	 1
    1521	    1772	    1775	 1
    1522	    1772	    1776	 1
    1523	    1772	    1777	 1
    1524	    1772	    1778	 1
    1525	    1779	    1780	 1
    1526	    1779	    1781	 1
    1527	    1779	    1782	 1
    1528	    1779	    1783	 1
    1529	    1779	    1784	 1
    1530	    1779	    1785	 1
    1531	    1786	    1787	 1
    1532	    1786	    1788	 1
    1533	    1786	    1789	 1
    1534	    1786	    1790	 1
    1535	    1786	    1791	 1
    1536	    1786	    1792	 1
    1537	    1793	    1794	 1
    1538	    1793	    1795	 1
    1539	    1793	    1796	 1
    1540	    1793	    1797	 1
    1541	    1793	    1798	 1
    1542	    1793	    1799	 1
    1543	    1800	    1801	 1
    1544	    1800	    1802	 1
    1545	    1800	    1803	 1
    1546	    1800	    1804	 1
    1547	    1800	    1805	 1
    1548	    1800	    1806	 1
    1549	    1807	    1808	 1
    1550	    1807	    1809	 1
    1551	    1807	    1810	 1
    1552	    1807	    1811	 1
    1553	    1807	    1812	 1
    1554	    1807	    1813	 1
    1555	    1814	    1815	 1
    1556	    1814	    1816	 1
    1557	    1814	    1817	 1
    1558	    1814	    1818	 1
    1559	    1814	    1819	 1
    1560	    1814	    1820	 1
    1561	    1821	    1822	 1
    1562	    1821	    1823	 1
    1563	    1821	    1824	 1
    1564	    1821	    1825	 1
    1565	    1821	    1826	 1
    1566	    1821	    1827	 1
    1567	    1828	    1829	 1
    1568	    1828	    1830	 1
    1569	    1828	    1831	 1
    1570	    1828	    1832	 1
    1571	    1828	    1833	 1
    1572	    1828	    1834	 1
    1573	    1835	    1836	 1
    1574	    1835	    1837	 1
    1575	    1835	    1838	 1
    1576	    1835	    1839	 1
    1577	    1835	    1840	 1
    1578	    1835	    1841	 1
    1579	    1842	    1843	 1
    1580	    1842	    1844	 1
    1581	    1842	    1845	 1
    1582	    1842	    1846	 1
    1583	    1842	    1847	 1
    1584	    1842	    1848	 1
    1585	    1849	    1850	 1
    1586	    1849	    1851	 1
    1587	    1849	    1852	 1
    1588	    1849	    1853	 1
    1589	    1849	    1854	 1
    1590	    1849	    1855	 1
    1591	    1856	    1857	 1
    1592	    1856	    1858	 1
    1593	    1856	    1859	 1
    1594	    1856	    1860	 1
    1595	    1856	    1861	 1
    1596	    1856	    1862	 1
    1597	    1863	    1864	 1
    1598	    1863	    1865	 1
    1599	    1863	    1866	 1
    1600	    1863	    1867	 1
    1601	    1863	    1868	 1
    1602	    1863	    1869	 1
    1603	    1870	    1871	 1
    1604	    1870	    1872	 1
    1605	    1870	    1873	 1
    1606	    1870	    1874	 1
    1607	    1870	    1875	 1
    1608	    1870	    1876	 1
    1609	    1877	    1878	 1
    1610	    1877	    1879	 1
    1611	    1877	    1880	 1
    1612	    1877	    1881	 1
    1613	    1877	    1882	 1
    1614	    1877	    1883	 1
    1615	    1884	    1885	 1
    1616	    1884	    1886	 1
    1617	    1884	    1887	 1
    1618	    1884	    1888	 1
    1619	    1884	    1889	 1
    1620	    1884	    1890	 1
    1621	    1891	    1892	 1
    1622	    1891	    1893	 1
    1623	    1891	    1894	 1
    1624	    1891	    1895	 1
    1625	    1891	    1896	 1
    1626	    1891	    1897	 1
    1627	    1898	    1899	 1
    1628	    1898	    1900	 1
    1629	    1898	    1901	 1
    1630	    1898	    1902	 1
    1631	    1898	    1903	 1
    1632	    1898	    1904	 1
    1633	    1905	    1906	 1
    1634	    1905	    1907	 1
    1635	    1905	    1908	 1
    1636	    1905	    1909	 1
    1637	    1905	    1910	 1
    1638	    1905	    1911	 1
    1639	    1912	    1913	 1
    1640	    1912	    1914	 1
    1641	    1912	    1915	 1
    1642	    1912	    1916	 1
    1643	    1912	    1917	 1
    1644	    1912	    1918	 1
    1645	    1919	    1920	 1
    1646	    1919	    1921	 1
    1647	    1919	    1922	 1
    1648	    1919	    1923	 1
    1649	    1919	    1924	 1
    1650	    1919	    1925	 1
    1651	    1926	    1927	 1
    1652	    1926	    1928	 1
    1653	    1926	    1929	 1
    1654	    1926	    1930	 1
    1655	    1926	    1931	 1
    1656	    1926	    1932	 1
    1657	    1933	    1934	 1
    1658	    1933	    1935	 1
    1659	    1933	    1936	 1
    1660	    1933	    1937	 1
    1661	    1933	    1938	 1
    1662	    1933	    1939	 1
    1663	    1940	    1941	 1
    1664	    1940	    1942	 1
    1665	    1940	    1943	 1
    1666	    1940	    1944	 1
    1667	    1940	    1945	 1
    1668	    1940	    1946	 1
    1669	    1947	    1948	 1
    1670	    1947	    1949	 1
    1671	    1947	    1950	 1
    1672	    1947	    1951	 1
    1673	    1947	    1952	 1
    1674	    1947	    1953	 1
    1675	    1954	    1955	 1
    1676	    1954	    1956	 1
    1677	    1954	    1957	 1
    1678	    1954	    1958	 1
    1679	    1954	    1959	 1
    1680	    1954	    1960	 1
    1681	    1961	    1962	 1
    1682	    1961	    1963	 1
    1683	    1961	    1964	 1
    1684	    1961	    1965	 1
    1685	    1961	    1966	 1
    1686	    1961	    1967	 1
    1687	    1968	    1969	 1
    1688	    1968	    1970	 1
    1689	    1968	    1971	 1
    1690	    1968	    1972	 1
    1691	    1968	    1973	 1
    1692	    1968	    1974	 1
    1693	    1975	    1976	 1
    1694	    1975	    1977	 1
    1695	    1975	    1978	 1
    1696	    1975	    1979	 1
    1697	    1975	    1980	 1
    1698	    1975	    1981	 1
    1699	    1982	    1983	 1
    1700	    1982	    1984	 1
    1701	    1982	    1985	 1
    1702	    1982	    1986	 1
    1703	    1982	    1987	 1
    1704	    1982	    1988	 1
    1705	    1989	    1990	 1
    1706	    1989	    1991	 1
    1707	    1989	    1992	 1
    1708	    1989	    1993	 1
    1709	    1989	    1994	 1
    1710	    1989	    1995	 1
    1711	    1996	    1997	 1
    1712	    1996	    1998	 1
    1713	    1996	    1999	 1
    1714	    1996	    2000	 1
    1715	    1996	    2001	 1
    1716	    1996	    2002	 1
    1717	    2003	    2004	 1
    1718	    2003	    2005	 1
    1719	    2003	    2006	 1
    1720	    2003	    2007	 1
    1721	    2003	    2008	 1
    1722	    2003	    2009	 1
    1723	    2010	    2011	 1
    1724	    2010	    2012	 1
    1725	    2010	    2013	 1
    1726	    2010	    2014	 1
    1727	    2010	    2015	 1
    1728	    2010	    2016	 1
    1729	    2017	    2018	 1
    1730	    2017	    2019	 1
    1731	    2017	    2020	 1
    1732	    2017	    2021	 1
    1733	    2017	    2022	 1
    1734	    2017	    2023	 1
    1735	    2024	    2025	 1
    1736	    2024	    2026	 1
    1737	    2024	    2027	 1
    1738	    2024	    2028	 1
    1739	    2024	    2029	 1
    1740	    2024	    2030	 1
    1741	    2031	    2032	 1
    1742	    2031	    2033	 1
    1743	    2031	    2034	 1
    1744	    2031	    2035	 1
    1745	    2031	    2036	 1
    1746	    2031	    2037	 1
    1747	    2038	    2039	 1
    1748	    2038	    2040	 1
    1749	    2038	    2041	 1
    1750	    2038	    2042	 1
    1751	    2038	    2043	 1
    1752	    2038	    2044	 1
    1753	    2045	    2046	 1
    1754	    2045	    2047	 1
    1755	    2045	    2048	 1
    1756	    2045	    2049	 1
    1757	    2045	    2050	 1
    1758	    2045	    2051	 1
    1759	    2052	    2053	 1
    1760	    2052	    2054	 1
    1761	    2052	    2055	 1
    1762	    2052	    2056	 1
    1763	    2052	    2057	 1
    1764	    2052	    2058	 1
    1765	    2059	    2060	 1
    1766	    2059	    2061	 1
    1767	    2059	    2062	 1
    1768	    2059	    2063	 1
    1769	    2059	    2064	 1
    1770	    2059	    2065	 1
    1771	    2066	    2067	 1
    1772	    2066	    2068	 1
    1773	    2066	    2069	 1
    1774	    2066	    2070	 1
    1775	    2066	    2071	 1
    1776	    2066	    2072	 1
    1777	    2073	    2074	 1
    1778	    2073	    2075	 1
    1779	    2073	    2076	 1
    1780	    2073	    2077	 1
    1781	    2073	    2078	 1
    1782	    2073	    2079	 1
    1783	    2080	    2081	 1
    1784	    2080	    2082	 1
    1785	    2080	    2083	 1
    1786	    2080	    2084	 1
    1787	    2080	    2085	 1
    1788	    2080	    2086	 1
    1789	    2087	    2088	 1
    1790	    2087	    2089	 1
    1791	    2087	    2090	 1
    1792	    2087	    2091	 1
    1793	    2087	    2092	 1
    1794	    2087	    2093	 1
    1795	    2094	    2095	 1
    1796	    2094	    2096	 1
    1797	    2094	    2097	 1
    1798	    2094	    2098	 1
    1799	    2094	    2099	 1
    1800	    2094	    2100	 1
    1801	    2101	    2102	 1
    1802	    2101	    2103	 1
    1803	    2101	    2104	 1
    1804	    2101	    2105	 1
    1805	    2101	    2106	 1
    1806	    2101	    2107	 1
    1807	    2108	    2109	 1
    1808	    2108	    2110	 1
    1809	    2108	    2111	 1
    1810	    2108	    2112	 1
    1811	    2108	    2113	 1
    1812	    2108	    2114	 1
    1813	    2115	    2116	 1
    1814	    2115	    2117	 1
    1815	    2115	    2118	 1
    1816	    2115	    2119	 1
    1817	    2115	    2120	 1
    1818	    2115	    2121	 1
    1819	    2122	    2123	 1
    1820	    2122	    2124	 1
    1821	    2122	    2125	 1
    1822	    2122	    2126	 1
    1823	    2122	    2127	 1
    1824	    2122	    2128	 1
    1825	    2129	    2130	 1
    1826	    2129	    2131	 1
    1827	    2129	    2132	 1
    1828	    2129	    2133	 1
    1829	    2129	    2134	 1
    1830	    2129	    2135	 1
    1831	    2136	    2137	 1
    1832	    2136	    2138	 1
    1833	    2136	    2139	 1
    1834	    2136	    2140	 1
    1835	    2136	    2141	 1
    1836	    2136	    2142	 1
    1837	    2143	    2144	 1
    1838	    2143	    2145	 1
    1839	    2143	    2146	 1
    1840	    2143	    2147	 1
    1841	    2143	    2148	 1
    1842	    2143	    2149	 1
    1843	    2150	    2151	 1
    1844	    2150	    2152	 1
    1845	    2150	    2153	 1
    1846	    2150	    2154	 1
    1847	    2150	    2155	 1
    1848	    2150	    2156	 1
    1849	    2157	    2158	 1
    1850	    2157	    2159	 1
    1851	    2157	    2160	 1
    1852	    2157	    2161	 1
    1853	    2157	    2162	 1
    1854	    2157	    2163	 1
    1855	    2164	    2165	 1
    1856	    2164	    2166	 1
    1857	    2164	    2167	 1
    1858	    2164	    2168	 1
    1859	    2164	    2169	 1
    1860	    2164	    2170	 1
    1861	    2171	    2172	 1
    1862	    2171	    2173	 1
    1863	    2171	    2174	 1
    1864	    2171	    2175	 1
    1865	    2171	    2176	 1
    1866	    2171	    2177	 1
    1867	    2178	    2179	 1
    1868	    2178	    2180	 1
    1869	    2178	    2181	 1
    1870	    2178	    2182	 1
    1871	    2178	    2183	 1
    1872	    2178	    2184	 1
    1873	    2185	    2186	 1
    1874	    2185	    2187	 1
    1875	    2185	    2188	 1
    1876	    2185	    2189	 1
    1877	    2185	    2190	 1
    1878	    2185	    2191	 1
    1879	    2192	    2193	 1
    1880	    2192	    2194	 1
    1881	    2192	    2195	 1
    1882	    2192	    2196	 1
    1883	    2192	    2197	 1
    1884	    2192	    2198	 1
    1885	    2199	    2200	 1
    1886	    2199	    2201	 1
    1887	    2199	    2202	 1
    1888	    2199	    2203	 1
    1889	    2199	    2204	 1
    1890	    2199	    2205	 1
    1891	    2206	    2207	 1
    1892	    2206	    2208	 1
    1893	    2206	    2209	 1
    1894	    2206	    2210	 1
    1895	    2206	    2211	 1
    1896	    2206	    2212	 1
    1897	    2213	    2214	 1
    1898	    2213	    2215	 1
    1899	    2213	    2216	 1
    1900	    2213	    2217	 1
    1901	    2213	    2218	 1
    1902	    2213	    2219	 1
    1903	    2220	    2221	 1
    1904	    2220	    2222	 1
    1905	    2220	    2223	 1
    1906	    2220	    2224	 1
    1907	    2220	    2225	 1
    1908	    2220	    2226	 1
    1909	    2227	    2228	 1
    1910	    2227	    2229	 1
    1911	    2227	    2230	 1
    1912	    2227	    2231	 1
    1913	    2227	    2232	 1
    1914	    2227	    2233	 1
    1915	    2234	    2235	 1
    1916	    2234	    2236	 1
    1917	    2234	    2237	 1
    1918	    2234	    2238	 1
    1919	    2234	    2239	 1
    1920	    2234	    2240	 1
    1921	    2241	    2242	 1
    1922	    2241	    2243	 1
    1923	    2241	    2244	 1
    1924	    2241	    2245	 1
    1925	    2241	    2246	 1
    1926	    2241	    2247	 1
    1927	    2248	    2249	 1
    1928	    2248	    2250	 1
    1929	    2248	    2251	 1
    1930	    2248	    2252	 1
    1931	    2248	    2253	 1
    1932	    2248	    2254	 1
    1933	    2255	    2256	 1
    1934	    2255	    2257	 1
    1935	    2255	    2258	 1
    1936	    2255	    2259	 1
    1937	    2255	    2260	 1
    1938	    2255	    2261	 1
    1939	    2262	    2263	 1
    1940	    2262	    2264	 1
    1941	    2262	    2265	 1
    1942	    2262	    2266	 1
    1943	    2262	    2267	 1
    1944	    2262	    2268	 1
    1945	    2269	    2270	 1
    1946	    2269	    2271	 1
    1947	    2269	    2272	 1
    1948	    2269	    2273	 1
    1949	    2269	    2274	 1
    1950	    2269	    2275	 1
    1951	    2276	    2277	 1
    1952	    2276	    2278	 1
    1953	    2276	    2279	 1
    1954	    2276	    2280	 1
    1955	    2276	    2281	 1
    1956	    2276	    2282	 1
    1957	    2283	    2284	 1
    1958	    2283	    2285	 1
    1959	    2283	    2286	 1
    1960	    2283	    2287	 1
    1961	    2283	    2288	 1
    1962	    2283	    2289	 1
    1963	    2290	    2291	 1
    1964	    2290	    2292	 1
    1965	    2290	    2293	 1
    1966	    2290	    2294	 1
    1967	    2290	    2295	 1
    1968	    2290	    2296	 1
    1969	    2297	    2298	 1
    1970	    2297	    2299	 1
    1971	    2297	    2300	 1
    1972	    2297	    2301	 1
    1973	    2297	    2302	 1
    1974	    2297	    2303	 1
    1975	    2304	    2305	 1
    1976	    2304	    2306	 1
    1977	    2304	    2307	 1
    1978	    2304	    2308	 1
    1979	    2304	    2309	 1
    1980	    2304	    2310	 1
    1981	    2311	    2312	 1
    1982	    2311	    2313	 1
    1983	    2311	    2314	 1
    1984	    2311	    2315	 1
    1985	    2311	    2316	 1
    1986	    2311	    2317	 1
    1987	    2318	    2319	 1
    1988	    2318	    2320	 1
    1989	    2318	    2321	 1
    1990	    2318	    2322	 1
    1991	    2318	    2323	 1
    1992	    2318	    2324	 1
    1993	    2325	    2326	 1
    1994	    2325	    2327	 1
    1995	    2325	    2328	 1
    1996	    2325	    2329	 1
    1997	    2325	    2330	 1
    1998	    2325	    2331	 1
    1999	    2332	    2333	 1
    2000	    2332	    2334	 1
    2001	    2332	    2335	 1
    2002	    2332	    2336	 1
    2003	    2332	    2337	 1
    2004	    2332	    2338	 1
    2005	    2339	    2340	 1
    2006	    2339	    2341	 1
    2007	    2339	    2342	 1
    2008	    2339	    2343	 1
    2009	    2339	    2344	 1
    2010	    2339	    2345	 1
    2011	    2346	    2347	 1
    2012	    2346	    2348	 1
    2013	    2346	    2349	 1
    2014	    2346	    2350	 1
    2015	    2346	    2351	 1
    2016	    2346	    2352	 1
    2017	    2353	    2354	 1
    2018	    2353	    2355	 1
    2019	    2353	    2356	 1
    2020	    2353	    2357	 1
    2021	    2353	    2358	 1
    2022	    2353	    2359	 1
    2023	    2360	    2361	 1
    2024	    2360	    2362	 1
    2025	    2360	    2363	 1
    2026	    2360	    2364	 1
    2027	    2360	    2365	 1
    2028	    2360	    2366	 1
    2029	    2367	    2368	 1
    2030	    2367	    2369	 1
    2031	    2367	    2370	 1
    2032	    2367	    2371	 1
    2033	    2367	    2372	 1
    2034	    2367	    2373	 1
    2035	    2374	    2375	 1
    2036	    2374	    2376	 1
    2037	    2374	    2377	 1
    2038	    2374	    2378	 1
    2039	    2374	    2379	 1
    2040	    2374	    2380	 1
    2041	    2381	    2382	 1
    2042	    2381	    2383	 1
    2043	    2381	    2384	 1
    2044	    2381	    2385	 1
    2045	    2381	    2386	 1
    2046	    2381	    2387	 1
    2047	    2388	    2389	 1
    2048	    2388	    2390	 1
    2049	    2388	    2391	 1
    2050	    2388	    2392	 1
    2051	    2388	    2393	 1
    2052	    2388	    2394	 1
    2053	    2395	    2396	 1
    2054	    2395	    2397	 1
    2055	    2395	    2398	 1
    2056	    2395	    2399	 1
    2057	    2395	    2400	 1
    2058	    2395	    2401	 1
    2059	    2402	    2403	 1
    2060	    2402	    2404	 1
    2061	    2402	    2405	 1
    2062	    2402	    2406	 1
    2063	    2402	    2407	 1
    2064	    2402	    2408	 1
    2065	    2409	    2410	 1
    2066	    2409	    2411	 1
    2067	    2409	    2412	 1
    2068	    2409	    2413	 1
    2069	    2409	    2414	 1
    2070	    2409	    2415	 1
    2071	    2416	    2417	 1
    2072	    2416	    2418	 1
    2073	    2416	    2419	 1
    2074	    2416	    2420	 1
    2075	    2416	    2421	 1
    2076	    2416	    2422	 1
    2077	    2423	    2424	 1
    2078	    2423	    2425	 1
    2079	    2423	    2426	 1
    2080	    2423	    2427	 1
    2081	    2423	    2428	 1
    2082	    2423	    2429	 1
    2083	    2430	    2431	 1
    2084	    2430	    2432	 1
    2085	    2430	    2433	 1
    2086	    2430	    2434	 1
    2087	    2430	    2435	 1
    2088	    2430	    2436	 1
    2089	    2437	    2438	 1
    2090	    2437	    2439	 1
    2091	    2437	    2440	 1
    2092	    2437	    2441	 1
    2093	    2437	    2442	 1
    2094	    2437	    2443	 1
    2095	    2444	    2445	 1
    2096	    2444	    2446	 1
    2097	    2444	    2447	 1
    2098	    2444	    2448	 1
    2099	    2444	    2449	 1
    2100	    2444	    2450	 1
    2101	    2451	    2452	 1
    2102	    2451	    2453	 1
    2103	    2451	    2454	 1
    2104	    2451	    2455	 1
    2105	    2451	    2456	 1
    2106	    2451	    2457	 1
    2107	    2458	    2459	 1
    2108	    2458	    2460	 1
    2109	    2458	    2461	 1
    2110	    2458	    2462	 1
    2111	    2458	    2463	 1
    2112	    2458	    2464	 1
    2113	    2465	    2466	 1
    2114	    2465	    2467	 1
    2115	    2465	    2468	 1
    2116	    2465	    2469	 1
    2117	    2465	    2470	 1
    2118	    2465	    2471	 1
    2119	    2472	    2473	 1
    2120	    2472	    2474	 1
    2121	    2472	    2475	 1
    2122	    2472	    2476	 1
    2123	    2472	    2477	 1
    2124	    2472	    2478	 1
    2125	    2479	    2480	 1
    2126	    2479	    2481	 1
    2127	    2479	    2482	 1
    2128	    2479	    2483	 1
    2129	    2479	    2484	 1
    2130	    2479	    2485	 1
    2131	    2486	    2487	 1
    2132	    2486	    2488	 1
    2133	    2486	    2489	 1
    2134	    2486	    2490	 1
    2135	    2486	    2491	 1
    2136	    2486	    2492	 1
    2137	    2493	    2494	 1
    2138	    2493	    2495	 1
    2139	    2493	    2496	 1
    2140	    2493	    2497	 1
    2141	    2493	    2498	 1
    2142	    2493	    2499	 1
    2143	    2500	    2501	 1
    2144	    2500	    2502	 1
    2145	    2500	    2503	 1
    2146	    2500	    2504	 1
    2147	    2500	    2505	 1
    2148	    2500	    2506	 1
    2149	    2507	    2508	 1
    2150	    2507	    2509	 1
    2151	    2507	    2510	 1
    2152	    2507	    2511	 1
    2153	    2507	    2512	 1
    2154	    2507	    2513	 1
    2155	    2514	    2515	 1
    2156	    2514	    2516	 1
    2157	    2514	    2517	 1
    2158	    2514	    2518	 1
    2159	    2514	    2519	 1
    2160	    2514	    2520	 1
    2161	    2521	    2522	 1
    2162	    2521	    2523	 1
    2163	    2521	    2524	 1
    2164	    2521	    2525	 1
    2165	    2521	    2526	 1
    2166	    2521	    2527	 1
    2167	    2528	    2529	 1
    2168	    2528	    2530	 1
    2169	    2528	    2531	 1
    2170	    2528	    2532	 1
    2171	    2528	    2533	 1
    2172	    2528	    2534	 1
    2173	    2535	    2536	 1
    2174	    2535	    2537	 1
    2175	    2535	    2538	 1
    2176	    2535	    2539	 1
    2177	    2535	    2540	 1
    2178	    2535	    2541	 1
    2179	    2542	    2543	 1
    2180	    2542	    2544	 1
    2181	    2542	    2545	 1
    2182	    2542	    2546	 1
    2183	    2542	    2547	 1
    2184	    2542	    2548	 1
    2185	    2549	    2550	 1
    2186	    2549	    2551	 1
    2187	    2549	    2552	 1
    2188	    2549	    2553	 1
    2189	    2549	    2554	 1
    2190	    2549	    2555	 1
    2191	    2556	    2557	 1
    2192	    2556	    2558	 1
    2193	    2556	    2559	 1
    2194	    2556	    2560	 1
    2195	    2556	    2561	 1
    2196	    2556	    2562	 1
    2197	    2563	    2564	 1
    2198	    2563	    2565	 1
    2199	    2563	    2566	 1
    2200	    2563	    2567	 1
    2201	    2563	    2568	 1
    2202	    2563	    2569	 1
    2203	    2570	    2571	 1
    2204	    2570	    2572	 1
    2205	    2570	    2573	 1
    2206	    2570	    2574	 1
    2207	    2570	    2575	 1
    2208	    2570	    2576	 1
    2209	    2577	    2578	 1
    2210	    2577	    2579	 1
    2211	    2577	    2580	 1
    2212	    2577	    2581	 1
    2213	    2577	    2582	 1
    2214	    2577	    2583	 1
    2215	    2584	    2585	 1
    2216	    2584	    2586	 1
    2217	    2584	    2587	 1
    2218	    2584	    2588	 1
    2219	    2584	    2589	 1
    2220	    2584	    2590	 1
    2221	    2591	    2592	 1
    2222	    2591	    2593	 1
    2223	    2591	    2594	 1
    2224	    2591	    2595	 1
    2225	    2591	    2596	 1
    2226	    2591	    2597	 1
    2227	    2598	    2599	 1
    2228	    2598	    2600	 1
    2229	    2598	    2601	 1
    2230	    2598	    2602	 1
    2231	    2598	    2603	 1
    2232	    2598	    2604	 1
    2233	    2605	    2606	 1
    2234	    2605	    2607	 1
    2235	    2605	    2608	 1
    2236	    2605	    2609	 1
    2237	    2605	    2610	 1
    2238	    2605	    2611	 1
    2239	    2612	    2613	 1
    2240	    2612	    2614	 1
    2241	    2612	    2615	 1
    2242	    2612	    2616	 1
    2243	    2612	    2617	 1
    2244	    2612	    2618	 1
    2245	    2619	    2620	 1
    2246	    2619	    2621	 1
    2247	    2619	    2622	 1
    2248	    2619	    2623	 1
    2249	    2619	    2624	 1
    2250	    2619	    2625	 1
    2251	    2626	    2627	 1
    2252	    2626	    2628	 1
    2253	    2626	    2629	 1
    2254	    2626	    2630	 1
    2255	    2626	    2631	 1
    2256	    2626	    2632	 1
    2257	    2633	    2634	 1
    2258	    2633	    2635	 1
    2259	    2633	    2636	 1
    2260	    2633	    2637	 1
    2261	    2633	    2638	 1
    2262	    2633	    2639	 1
    2263	    2640	    2641	 1
    2264	    2640	    2642	 1
    2265	    2640	    2643	 1
    2266	    2640	    2644	 1
    2267	    2640	    2645	 1
    2268	    2640	    2646	 1
    2269	    2647	    2648	 1
    2270	    2647	    2649	 1
    2271	    2647	    2650	 1
    2272	    2647	    2651	 1
    2273	    2647	    2652	 1
    2274	    2647	    2653	 1
    2275	    2654	    2655	 1
    2276	    2654	    2656	 1
    2277	    2654	    2657	 1
    2278	    2654	    2658	 1
    2279	    2654	    2659	 1
    2280	    2654	    2660	 1
    2281	    2661	    2662	 1
    2282	    2661	    2663	 1
    2283	    2661	    2664	 1
    2284	    2661	    2665	 1
    2285	    2661	    2666	 1
    2286	    2661	    2667	 1
    2287	    2668	    2669	 1
    2288	    2668	    2670	 1
    2289	    2668	    2671	 1
    2290	    2668	    2672	 1
    2291	    2668	    2673	 1
    2292	    2668	    2674	 1
    2293	    2675	    2676	 1
    2294	    2675	    2677	 1
    2295	    2675	    2678	 1
    2296	    2675	    2679	 1
    2297	    2675	    2680	 1
    2298	    2675	    2681	 1
    2299	    2682	    2683	 1
    2300	    2682	    2684	 1
    2301	    2682	    2685	 1
    2302	    2682	    2686	 1
    2303	    2682	    2687	 1
    2304	    2682	    2688	 1
    2305	    2689	    2690	 1
    2306	    2689	    2691	 1
    2307	    2689	    2692	 1
    2308	    2689	    2693	 1
    2309	    2689	    2694	 1
    2310	    2689	    2695	 1
    2311	    2696	    2697	 1
    2312	    2696	    2698	 1
    2313	    2696	    2699	 1
    2314	    2696	    2700	 1
    2315	    2696	    2701	 1
    2316	    2696	    2702	 1
    2317	    2703	    2704	 1
    2318	    2703	    2705	 1
    2319	    2703	    2706	 1
    2320	    2703	    2707	 1
    2321	    2703	    2708	 1
    2322	    2703	    2709	 1
    2323	    2710	    2711	 1
    2324	    2710	    2712	 1
    2325	    2710	    2713	 1
    2326	    2710	    2714	 1
    2327	    2710	    2715	 1
    2328	    2710	    2716	 1
    2329	    2717	    2718	 1
    2330	    2717	    2719	 1
    2331	    2717	    2720	 1
    2332	    2717	    2721	 1
    2333	    2717	    2722	 1
    2334	    2717	    2723	 1
    2335	    2724	    2725	 1
    2336	    2724	    2726	 1
    2337	    2724	    2727	 1
    2338	    2724	    2728	 1
    2339	    2724	    2729	 1
    2340	    2724	    2730	 1
    2341	    2731	    2732	 1
    2342	    2731	    2733	 1
    2343	    2731	    2734	 1
    2344	    2731	    2735	 1
    2345	    2731	    2736	 1
    2346	    2731	    2737	 1
    2347	    2738	    2739	 1
    2348	    2738	    2740	 1
    2349	    2738	    2741	 1
    2350	    2738	    2742	 1
    2351	    2738	    2743	 1
    2352	    2738	    2744	 1
    2353	    2745	    2746	 1
    2354	    2745	    2747	 1
    2355	    2745	    2748	 1
    2356	    2745	    2749	 1
    2357	    2745	    2750	 1
    2358	    2745	    2751	 1
    2359	    2752	    2753	 1
    2360	    2752	    2754	 1
    2361	    2752	    2755	 1
    2362	    2752	    2756	 1
    2363	    2752	    2757	 1
    2364	    2752	    2758	 1
    2365	    2759	    2760	 1
    2366	    2759	    2761	 1
    2367	    2759	    2762	 1
    2368	    2759	    2763	 1
    2369	    2759	    2764	 1
    2370	    2759	    2765	 1
    2371	    2766	    2767	 1
    2372	    2766	    2768	 1
    2373	    2766	    2769	 1
    2374	    2766	    2770	 1
    2375	    2766	    2771	 1
    2376	    2766	    2772	 1
    2377	    2773	    2774	 1
    2378	    2773	    2775	 1
    2379	    2773	    2776	 1
    2380	    2773	    2777	 1
    2381	    2773	    2778	 1
    2382	    2773	    2779	 1
    2383	    2780	    2781	 1
    2384	    2780	    2782	 1
    2385	    2780	    2783	 1
    2386	    2780	    2784	 1
    2387	    2780	    2785	 1
    2388	    2780	    2786	 1
    2389	    2787	    2788	 1
    2390	    2787	    2789	 1
    2391	    2787	    2790	 1
    2392	    2787	    2791	 1
    2393	    2787	    2792	 1
    2394	    2787	    2793	 1
    2395	    2794	    2795	 1
    2396	    2794	    2796	 1
    2397	    2794	    2797	 1
    2398	    2794	    2798	 1
    2399	    2794	    2799	 1
    2400	    2794	    2800	 1
    2401	     747	    1640	 1
    2402	     661	    1103	 1
    2403	    2349	    2733	 1
    2404	    1131	    1977	 1
    2405	     417	     891	 1
    2406	    1915	    2063	 1
    2407	     667	    1178	 1
    2408	     783	    1742	 1
    2409	      18	    2554	 1
    2410	     625	     826	 1
    2411	     434	    1603	 1
    2412	     451	    1628	 1
@<TRIPOS>FF_PBC
    v1.0	       1	     -20	     -20	     -20	      20	      20	      20
30000
@<TRIPOS>MOLECULE
Nanorod
2800	2415
SMALL
NO_CHARGES
@<TRIPOS>ATOM
     1	1	-14.7956	-15.6347	 17.7175	N.3
     2	2	-14.8509	-14.8005	  16.995	C.1
     3	2	-14.0015	-14.9501	 17.3687	C.1
     4	2	-15.2174	-16.4859	 17.1532	C.1
     5	2	 -14.368	-16.6355	 17.5269	C.1
     6	2	-15.5926	-15.3933	 18.4436	C.1
     7	2	-14.7432	-15.5429	 18.8173	C.1
     8	1	 5.57992	 15.8861	 8.28819	N.3
     9	2	 4.56023	 15.9798	 8.70335	C.1
    10	2	 4.68599	 16.3736	 7.85913	C.1
    11	2	 5.77193	 14.7989	 8.33299	C.1
    12	2	 5.89768	 15.1927	 7.48877	C.1
    13	2	 6.21897	 16.2888	 9.09457	C.1
    14	2	 6.34472	 16.6826	 8.25035	C.1
    15	1	 5.69354	 9.18236	 15.0959	N.3
    16	2	 5.79184	  10.282	 15.1422	C.1
    17	2	  6.4742	 9.80101	 15.5742	C.1
    18	2	  5.5908	 8.98321	  14.014	C.1
    19	2	 6.27316	 8.50226	  14.446	C.1
    20	2	 4.67445	 9.00335	 15.4836	C.1
    21	2	 5.35681	  8.5224	 15.9156	C.1
    22	1	 11.8553	-16.5266	-14.9152	N.3
    23	2	 11.8485	-17.6292	-14.9864	C.1
    24	2	 12.0156	 -17.285	-14.1278	C.1
    25	2	 10.8838	 -16.239	 -15.356	C.1
    26	2	 11.0509	-15.8948	-14.4973	C.1
    27	2	  12.583	-16.2278	-15.6911	C.1
    28	2	 12.7501	-15.8836	-14.8325	C.1
    29	1	-14.8532	-14.3622	-12.2877	N.3
    30	2	-13.7579	-14.2573	-12.3898	C.1
    31	2	-14.2007	-13.5055	-12.0401	C.1
    32	2	-14.9642	-15.2897	-11.6975	C.1
    33	2	 -15.407	-14.5379	-11.3478	C.1
    34	2	-15.1732	-14.6673	-13.3003	C.1
    35	2	 -15.616	-13.9155	-12.9506	C.1
    36	1	 7.77297	-12.3687	 8.38783	N.3
    37	2	 8.19632	-11.4381	 8.80697	C.1
    38	2	 8.40748	-11.6032	 7.90598	C.1
    39	2	 6.69419	-12.2773	 8.60861	C.1
    40	2	 6.90535	-12.4423	 7.70762	C.1
    41	2	 8.11165	-13.1432	 9.09939	C.1
    42	2	 8.32281	-13.3082	  8.1984	C.1
    43	1	-0.319878	-0.387842	-16.0635	N.3
    44	2	-0.323172	0.716962	-16.0807	C.1
    45	2	-0.168874	0.330676	-15.2377	C.1
    46	2	0.417901	-0.65042	 -16.843	C.1
    47	2	0.572199	-1.03671	     -16	C.1
    48	2	-1.28581	-0.650638	-16.5312	C.1
    49	2	-1.13151	-1.03692	-15.6882	C.1
    50	1	-10.3647	-3.27781	 13.1301	N.3
    51	2	-10.2237	-3.13914	  12.043	C.1
    52	2	-11.0789	-3.43172	 12.3011	C.1
    53	2	-10.0538	-2.30475	 13.5513	C.1
    54	2	 -10.909	-2.59733	 13.8094	C.1
    55	2	-9.53375	-3.95066	 13.4088	C.1
    56	2	-10.3889	-4.24324	 13.6669	C.1
    57	1	-14.5177	 8.93786	 -3.0762	N.3
    58	2	-15.2942	 9.67751	   -2.81	C.1
    59	2	-15.5123	 8.78302	-2.62044	C.1
    60	2	-13.6174	 9.32102	-2.56296	C.1
    61	2	-13.8355	 8.42654	 -2.3734	C.1
    62	2	-14.3145	 9.15678	-4.13997	C.1
    63	2	-14.5325	  8.2623	-3.95041	C.1
    64	1	 1.92206	-12.5638	 6.50397	N.3
    65	2	 1.26502	-13.3505	  6.9166	C.1
    66	2	  1.8642	-12.9671	 7.53105	C.1
    67	2	 1.21007	-11.8583	 6.03899	C.1
    68	2	 1.80925	-11.4749	 6.65345	C.1
    69	2	 2.39231	-13.0577	 5.63462	C.1
    70	2	 2.99149	-12.6743	 6.24908	C.1
    71	1	-0.502997	-13.8823	-17.4134	N.3
    72	2	-0.494014	-14.8625	-16.9034	C.1
    73	2	0.349056	-14.5415	-17.1676	C.1
    74	2	-1.05209	-13.2348	-16.7062	C.1
    75	2	-0.209022	-12.9137	-16.9704	C.1
    76	2	-1.22749	-14.0313	-18.2342	C.1
    77	2	-0.38442	-13.7102	-18.4983	C.1
    78	1	-10.7204	0.351697	-3.15238	N.3
    79	2	-11.1317	 1.36872	-3.28421	C.1
    80	2	-10.7539	 1.19644	 -2.4409	C.1
    81	2	-10.0289	0.246066	-4.00765	C.1
    82	2	-9.65108	0.0737793	-3.16434	C.1
    83	2	-11.5673	-0.301268	-3.43022	C.1
    84	2	-11.1895	-0.473555	-2.58691	C.1
    85	1	 16.4361	 9.99311	 -18.184	N.3
    86	2	 16.6213	 10.4245	-19.1842	C.1
    87	2	 16.7384	 9.49389	-19.1222	C.1
    88	2	 15.4227	 10.3568	-17.9357	C.1
    89	2	 15.5398	 9.42622	-17.8737	C.1
    90	2	 17.0885	 10.5939	 -17.525	C.1
    91	2	 17.2057	  9.6633	 -17.463	C.1
    92	1	-3.21065	 10.4002	 8.43954	N.3
    93	2	-2.20657	 9.93972	 8.41417	C.1
    94	2	 -2.2707	 10.7316	 8.91664	C.1
    95	2	-3.85927	 9.57333	 8.78064	C.1
    96	2	 -3.9234	 10.3652	 9.28311	C.1
    97	2	-3.46991	 10.4999	  7.3701	C.1
    98	2	-3.53404	 11.2918	 7.87257	C.1
    99	1	-16.8491	 12.3813	-0.518191	N.3
   100	2	-16.1141	 12.0297	0.228155	C.1
   101	2	 -16.321	 11.4131	-0.450466	C.1
   102	2	-16.4176	 13.3368	-0.866995	C.1
   103	2	-16.6245	 12.7202	-1.54562	C.1
   104	2	-17.7052	 12.7023	0.102196	C.1
   105	2	-17.9121	 12.0857	-0.576424	C.1
   106	1	-1.38089	 6.26534	 14.6122	N.3
   107	2	-2.40115	 6.03959	 14.9714	C.1
   108	2	-1.71286	 5.55909	 15.3944	C.1
   109	2	-1.31597	 7.36401	 14.7101	C.1
   110	2	-0.627682	 6.88351	 15.1332	C.1
   111	2	-1.45799	 6.11318	 13.5205	C.1
   112	2	-0.769699	 5.63269	 13.9436	C.1
   113	1	 17.1761	 1.40849	-14.7465	N.3
   114	2	 17.9063	0.634172	-14.4495	C.1
   115	2	 17.5377	 1.12914	-13.7405	C.1
   116	2	 16.4462	 0.84662	-15.3568	C.1
   117	2	 16.0777	 1.34159	-14.6477	C.1
   118	2	 17.7287	 2.00223	-15.4968	C.1
   119	2	 17.3602	  2.4972	-14.7878	C.1
   120	1	 7.62176	 16.8784	 15.3719	N.3
   121	2	 8.59663	 16.7828	 14.8606	C.1
   122	2	 8.64425	 16.9713	 15.7803	C.1
   123	2	 7.10642	 15.9364	 15.1113	C.1
   124	2	 7.15404	  16.125	  16.031	C.1
   125	2	 7.09081	 17.6332	 14.7642	C.1
   126	2	 7.13843	 17.8217	 15.6839	C.1
   127	1	-18.9944	 2.09866	 2.89868	N.3
   128	2	-17.9522	 2.37362	 3.14181	C.1
   129	2	-18.3449	 2.86988	 2.44674	C.1
   130	2	-19.5082	 2.16841	 3.87438	C.1
   131	2	-19.9009	 2.66467	 3.17931	C.1
   132	2	-18.9338	 1.00957	 2.72247	C.1
   133	2	-19.3265	 1.50583	  2.0274	C.1
   134	1	 8.29297	-1.57149	 10.2357	N.3
   135	2	 8.65963	-2.51866	 9.80058	C.1
   136	2	 8.60193	-1.79835	 9.19938	C.1
   137	2	 8.96628	-1.41192	 11.0971	C.1
   138	2	 8.90857	-0.691623	 10.4959	C.1
   139	2	 7.33957	-1.86435	 10.7112	C.1
   140	2	 7.28186	-1.14405	   10.11	C.1
   141	1	 5.24345	-17.3969	 13.4243	N.3
   142	2	 4.71155	-16.4286	 13.4055	C.1
   143	2	  5.6489	-16.3707	 13.3651	C.1
   144	2	 4.77134	-17.9605	 12.5995	C.1
   145	2	 5.70869	-17.9026	 12.5591	C.1
   146	2	 4.84143	-17.8884	 14.3286	C.1
   147	2	 5.77878	-17.8305	 14.2881	C.1
   148	1	 14.8637	 19.9793	-5.58201	N.3
   149	2	 13.9095	 20.3829	-5.96602	C.1
   150	2	 14.6211	 20.9965	-5.93898	C.1
   151	2	 15.0342	 19.0893	-6.21426	C.1
   152	2	 15.7459	 19.7029	-6.18723	C.1
   153	2	   14.58	 19.5453	-4.60629	C.1
   154	2	 15.2916	 20.1589	-4.57926	C.1
   155	1	-17.5074	-18.2775	-15.5932	N.3
   156	2	-17.0787	-17.3325	-15.9726	C.1
   157	2	-17.1551	-18.0206	-16.6084	C.1
   158	2	-18.4586	-17.9562	-15.1319	C.1
   159	2	 -18.535	-18.6443	-15.7678	C.1
   160	2	-16.8704	-18.5118	-14.7213	C.1
   161	2	-16.9468	-19.1999	-15.3571	C.1
   162	1	-17.5272	 -16.002	   15.17	N.3
   163	2	-17.5887	 -16.975	   14.65	C.1
   164	2	-17.5033	-17.0259	 15.5847	C.1
   165	2	-18.4228	-15.4653	 14.8084	C.1
   166	2	-18.3374	-15.5162	 15.7431	C.1
   167	2	-16.6983	-15.4894	 14.6496	C.1
   168	2	-16.6129	-15.5403	 15.5843	C.1
   169	1	 12.1605	-13.5439	 14.2301	N.3
   170	2	  12.916	 -13.003	 14.8281	C.1
   171	2	  13.107	-13.9092	 14.6676	C.1
   172	2	 12.0588	-12.9177	 13.3254	C.1
   173	2	 12.2498	 -13.824	  13.165	C.1
   174	2	 11.2201	-13.3515	 14.7774	C.1
   175	2	 11.4112	-14.2578	  14.617	C.1
   176	1	 -3.9747	-11.4946	-10.7052	N.3
   177	2	-3.75167	-12.5396	-10.9865	C.1
   178	2	-3.16067	 -11.897	-11.3348	C.1
   179	2	-4.02761	-11.5357	-9.60233	C.1
   180	2	-3.43661	 -10.893	-9.95064	C.1
   181	2	-5.03132	-11.3725	-11.0044	C.1
   182	2	-4.44031	-10.7299	-11.3527	C.1
   183	1	 1.53852	 3.30614	 9.69057	N.3
   184	2	 1.21067	 4.33762	 9.46816	C.1
   185	2	 1.93688	 4.02986	 8.95678	C.1
   186	2	0.608781	 2.71796	 9.58816	C.1
   187	2	 1.33499	 2.41021	 9.07679	C.1
   188	2	  1.7068	 3.32448	 10.7824	C.1
   189	2	 2.43301	 3.01672	 10.2711	C.1
   190	1	 10.6801	-11.0948	 8.38224	N.3
   191	2	 9.93168	 -10.773	 9.12869	C.1
   192	2	 9.96678	-10.2517	 8.34726	C.1
   193	2	 10.4379	-12.1614	 8.22524	C.1
   194	2	  10.473	-11.6401	 7.44382	C.1
   195	2	 11.6182	 -11.132	 8.96493	C.1
   196	2	 11.6533	-10.6107	 8.18351	C.1
   197	1	 -8.3873	-7.68147	-6.05797	N.3
   198	2	-9.03834	-7.61403	-6.94819	C.1
   199	2	-9.34146	-7.14123	-6.19442	C.1
   200	2	-7.39984	-7.36909	-6.44295	C.1
   201	2	-7.70296	-6.89628	-5.68917	C.1
   202	2	-8.26904	 -8.7705	-5.91344	C.1
   203	2	-8.57216	-8.29769	-5.15966	C.1
   204	1	-6.49288	 8.50979	-10.3969	N.3
   205	2	-7.09118	 9.42178	-10.2203	C.1
   206	2	-6.53813	  9.4473	  -10.98	C.1
   207	2	-7.25093	 7.70592	-10.3943	C.1
   208	2	-6.69787	 7.73144	-11.1539	C.1
   209	2	 -5.9661	 8.36339	-9.43676	C.1
   210	2	-5.41305	  8.3889	-10.1964	C.1
   211	1	-10.4171	 7.09179	0.479056	N.3
   212	2	-11.1695	 7.18644	-0.324567	C.1
   213	2	-11.0949	 6.32945	0.0543824	C.1
   214	2	-10.6983	 7.89463	  1.1842	C.1
   215	2	-10.6237	 7.03764	 1.56315	C.1
   216	2	-9.49546	 7.47977	0.00911427	C.1
   217	2	-9.42083	 6.62278	0.388064	C.1
   218	1	 -11.866	 12.5205	 17.3272	N.3
   219	2	-11.4893	 11.5434	 16.9748	C.1
   220	2	-11.6321	 12.1834	 16.3013	C.1
   221	2	-11.1332	 12.8093	 18.1021	C.1
   222	2	-11.2761	 13.4493	 17.4285	C.1
   223	2	-12.7613	  12.249	  17.915	C.1
   224	2	-12.9042	 12.8889	 17.2415	C.1
   225	1	-5.04176	-12.9269	 8.10013	N.3
   226	2	-6.09834	 -13.227	 8.22028	C.1
   227	2	-5.82464	-12.5044	 8.75549	C.1
   228	2	-4.94674	-12.7675	 7.01089	C.1
   229	2	-4.67304	-12.0448	  7.5461	C.1
   230	2	-4.49075	  -13.87	  8.2664	C.1
   231	2	-4.21705	-13.1474	 8.80161	C.1
   232	1	 2.69032	-0.309245	 3.75097	N.3
   233	2	 2.24508	-0.758364	 4.65703	C.1
   234	2	 1.84869	0.0452411	 4.37298	C.1
   235	2	 2.65697	-1.13479	 3.01734	C.1
   236	2	 2.26057	-0.331188	 2.73328	C.1
   237	2	  3.7635	-0.239986	 4.00462	C.1
   238	2	 3.36711	0.563619	 3.72056	C.1
   239	1	 9.77385	-3.26211	-5.69947	N.3
   240	2	 8.78636	-2.79735	-5.52693	C.1
   241	2	 8.78225	-3.73563	-5.58368	C.1
   242	2	 10.3955	-2.84307	-4.88783	C.1
   243	2	 10.3914	-3.78134	-4.94458	C.1
   244	2	 10.1458	 -2.7385	-6.59854	C.1
   245	2	 10.1417	-3.67678	-6.65529	C.1
   246	1	-6.41967	-0.340345	 10.7617	N.3
   247	2	-5.50938	-0.645059	 11.3089	C.1
   248	2	-5.53294	-0.893156	 10.4025	C.1
   249	2	-6.47764	0.746312	 10.9532	C.1
   250	2	 -6.5012	0.498215	 10.0468	C.1
   251	2	-7.23665	-0.750141	 11.3825	C.1
   252	2	-7.26021	-0.998238	 10.4762	C.1
   253	1	 5.22671	 15.4682	 -8.7425	N.3
   254	2	 4.45565	 16.0925	-9.22893	C.1
   255	2	 5.01374	 16.5459	-8.62348	C.1
   256	2	 5.74507	  14.996	-9.59642	C.1
   257	2	 6.30317	 15.4494	-8.99097	C.1
   258	2	 4.64227	  14.636	-8.31031	C.1
   259	2	 5.20037	 15.0894	-7.70486	C.1
   260	1	0.312556	 13.9334	 3.02258	N.3
   261	2	-0.123578	 14.4672	 2.15906	C.1
   262	2	0.784666	 14.2411	 2.07215	C.1
   263	2	-0.37321	 13.0786	 3.16368	C.1
   264	2	0.535034	 12.8524	 3.07678	C.1
   265	2	0.0720897	 14.5935	 3.87537	C.1
   266	2	0.980334	 14.3674	 3.78846	C.1
   267	1	-14.8265	-17.3353	-14.5848	N.3
   268	2	-15.7194	-16.9266	-14.0784	C.1
   269	2	-15.7169	-17.8595	-14.1933	C.1
   270	2	-13.9899	-16.9333	-13.9854	C.1
   271	2	-13.9874	-17.8662	-14.1003	C.1
   272	2	 -14.774	-16.7466	-15.5184	C.1
   273	2	-14.7715	-17.6796	-15.6333	C.1
   274	1	 11.1989	-4.89597	-9.46595	N.3
   275	2	  10.293	-4.68064	-8.87105	C.1
   276	2	 10.3941	-5.57704	-9.13534	C.1
   277	2	 12.0149	-4.49652	-8.83712	C.1
   278	2	  12.116	-5.39292	-9.10141	C.1
   279	2	 11.1372	-4.16616	-10.2932	C.1
   280	2	 11.2382	-5.06256	-10.5575	C.1
   281	1	-15.4263	-13.7804	-8.19762	N.3
   282	2	-16.4563	-13.4119	 -8.0416	C.1
   283	2	-16.3895	-14.2311	-8.49781	C.1
   284	2	-14.9986	-13.7736	-7.17888	C.1
   285	2	-14.9318	-14.5928	 -7.6351	C.1
   286	2	-14.9243	 -12.927	-8.68806	C.1
   287	2	-14.8575	-13.7462	-9.14428	C.1
   288	1	-5.27921	 4.06211	 12.7942	N.3
   289	2	-4.72646	 4.71481	 12.0946	C.1
   290	2	-4.68766	 3.79608	 11.8996	C.1
   291	2	-6.29403	 4.49911	  12.799	C.1
   292	2	-6.25523	 3.58037	  12.604	C.1
   293	2	-4.87533	 4.35052	 13.7814	C.1
   294	2	-4.83653	 3.43179	 13.5864	C.1
   295	1	-15.8888	 17.8833	 18.7432	N.3
   296	2	-15.0485	 17.5506	 18.1075	C.1
   297	2	-15.4953	 18.3216	 17.8084	C.1
   298	2	-15.4306	 17.9646	 19.7453	C.1
   299	2	-15.8773	 18.7356	 19.4462	C.1
   300	2	-16.5172	 16.9782	 18.8254	C.1
   301	2	-16.9639	 17.7493	 18.5263	C.1
   302	1	-15.9393	-2.24882	-18.0847	N.3
   303	2	-16.2264	-1.21496	-18.3485	C.1
   304	2	-16.1609	-1.80916	-19.0739	C.1
   305	2	-16.6803	-2.52792	 -17.314	C.1
   306	2	-16.6147	-3.12212	-18.0394	C.1
   307	2	-15.0096	-2.11228	-17.5034	C.1
   308	2	 -14.944	-2.70649	-18.2288	C.1
   309	1	-2.93779	 15.5196	-8.32892	N.3
   310	2	-2.11188	 15.1826	-8.98098	C.1
   311	2	-2.18537	 14.7279	-8.16153	C.1
   312	2	-3.82318	 15.4497	-8.98624	C.1
   313	2	-3.89667	 14.9951	-8.16679	C.1
   314	2	-2.76808	 16.6085	-8.24873	C.1
   315	2	-2.84158	 16.1538	-7.42928	C.1
   316	1	-5.22059	 14.3977	 10.6935	N.3
   317	2	-4.82389	 15.2671	 10.1388	C.1
   318	2	-5.10813	 15.4484	 11.0163	C.1
   319	2	-4.41028	 13.6516	 10.6066	C.1
   320	2	-4.69453	 13.8329	 11.4841	C.1
   321	2	-6.00123	 14.0024	 10.0188	C.1
   322	2	-6.28547	 14.1838	 10.8962	C.1
   323	1	  18.011	 19.8584	 18.4349	N.3
   324	2	 18.7969	 20.4936	 18.8819	C.1
   325	2	 18.0194	 20.3947	 19.4009	C.1
   326	2	 18.5456	  18.919	 18.2054	C.1
   327	2	 17.7682	 18.8201	 18.7245	C.1
   328	2	 17.8567	 20.3109	 17.4387	C.1
   329	2	 17.0792	  20.212	 17.9577	C.1
   330	1	 16.8911	-15.8695	   7.163	N.3
   331	2	 16.1102	-16.3328	 6.53335	C.1
   332	2	 15.9724	-16.4066	 7.46026	C.1
   333	2	 16.9465	-14.8357	 6.77684	C.1
   334	2	 16.8086	-14.9094	 7.70375	C.1
   335	2	 17.8234	-16.3293	 6.78844	C.1
   336	2	 17.6855	 -16.403	 7.71535	C.1
   337	1	 -7.7373	 17.7976	 3.59849	N.3
   338	2	-7.82963	 17.3592	 4.60857	C.1
   339	2	-8.38542	 18.0986	 4.44123	C.1
   340	2	-7.89476	 16.9308	 2.93163	C.1
   341	2	-8.45055	 17.6702	 2.76429	C.1
   342	2	-6.65382	 17.9936	  3.5063	C.1
   343	2	-7.20961	  18.733	 3.33896	C.1
   344	1	-3.78243	 13.2757	-14.5721	N.3
   345	2	-3.23652	 13.1693	-15.5269	C.1
   346	2	-2.75785	 12.9078	-14.7613	C.1
   347	2	-4.71944	  12.719	-14.7535	C.1
   348	2	-4.24076	 12.4575	 -13.988	C.1
   349	2	-4.10934	 14.3311	-14.5843	C.1
   350	2	-3.63067	 14.0696	-13.8188	C.1
   351	1	-17.6591	-10.1886	-3.32199	N.3
   352	2	-17.6376	-9.79043	-2.29152	C.1
   353	2	-17.1201	-10.5623	-2.43278	C.1
   354	2	 -17.377	 -9.3147	-3.93643	C.1
   355	2	-16.8595	-10.0866	-4.07769	C.1
   356	2	 -18.739	-10.3029	-3.52613	C.1
   357	2	-18.2215	-11.0748	 -3.6674	C.1
   358	1	-13.5232	  10.321	 11.8145	N.3
   359	2	-12.8824	 9.68818	 11.1743	C.1
   360	2	 -13.427	 9.22076	 11.7814	C.1
   361	2	-14.0647	 10.9508	 11.0858	C.1
   362	2	-14.6093	 10.4834	 11.6929	C.1
   363	2	-12.8055	 11.0252	 12.2727	C.1
   364	2	-13.3501	 10.5578	 12.8798	C.1
   365	1	-1.09279	-8.97911	 -8.6351	N.3
   366	2	-1.82536	-9.15825	-9.44266	C.1
   367	2	-1.98568	-9.62991	-8.64551	C.1
   368	2	-1.08872	-7.87853	-8.53732	C.1
   369	2	-1.24905	-8.35019	-7.74017	C.1
   370	2	-0.123797	-9.19307	-9.12104	C.1
   371	2	-0.284121	-9.66472	-8.32389	C.1
   372	1	-11.9567	 6.02698	-10.7566	N.3
   373	2	-12.5271	 5.86542	-9.82417	C.1
   374	2	-11.5947	 5.91935	-9.71823	C.1
   375	2	 -12.433	 6.92399	-11.1918	C.1
   376	2	-11.5005	 6.97793	-11.0859	C.1
   377	2	-12.3088	 5.21063	-11.4127	C.1
   378	2	-11.3763	 5.26456	-11.3068	C.1
   379	1	 17.1768	-1.20271	-13.1829	N.3
   380	2	 17.5958	-0.182506	-13.1155	C.1
   381	2	 17.0044	-0.418327	 -12.424	C.1
   382	2	 18.0755	-1.83958	-13.2703	C.1
   383	2	 17.4841	 -2.0754	-12.5788	C.1
   384	2	 16.7463	-1.23231	   -14.2	C.1
   385	2	 16.1549	-1.46813	-13.5085	C.1
   386	1	 5.74306	-5.22278	 9.65699	N.3
   387	2	 5.85431	-4.20435	 10.0709	C.1
   388	2	 5.87258	-4.89791	 10.7051	C.1
   389	2	 6.53327	-5.26986	 8.88614	C.1
   390	2	 6.55155	-5.96342	 9.52037	C.1
   391	2	 4.81419	 -5.1538	  9.0626	C.1
   392	2	 4.83247	-5.84736	 9.69683	C.1
   393	1	 1.53093	 15.1123	 13.0704	N.3
   394	2	0.650764	 14.5163	  13.372	C.1
   395	2	 0.86104	 14.4836	 12.4564	C.1
   396	2	 2.32512	 14.7508	 13.7482	C.1
   397	2	 2.53539	 14.7181	 12.8326	C.1
   398	2	 1.30149	 16.1188	 13.4644	C.1
   399	2	 1.51177	 16.0861	 12.5488	C.1
   400	1	-1.49846	-6.83193	-14.9389	N.3
   401	2	-1.96679	-6.27521	-14.1072	C.1
   402	2	-2.46928	-6.99754	-14.4379	C.1
   403	2	-0.503589	 -7.0962	-14.5373	C.1
   404	2	-1.00608	-7.81854	 -14.868	C.1
   405	2	-1.27127	-6.04088	-15.6761	C.1
   406	2	-1.77376	-6.76322	-16.0068	C.1
   407	1	 17.5027	 8.42492	 2.65818	N.3
   408	2	 17.6787	 9.51001	 2.77007	C.1
   409	2	 16.8873	 9.27768	 2.31911	C.1
   410	2	 17.5814	 8.04816	  3.6939	C.1
   411	2	   16.79	 7.81583	 3.24295	C.1
   412	2	 18.4351	 8.06509	 2.18702	C.1
   413	2	 17.6438	 7.83276	 1.73606	C.1
   414	1	-11.7189	-12.3827	-16.0792	N.3
   415	2	-12.0494	-11.9668	-17.0481	C.1
   416	2	-12.1288	 -11.384	-16.3148	C.1
   417	2	-10.6929	-12.7336	-16.2917	C.1
   418	2	-10.7724	-12.1508	-15.5584	C.1
   419	2	-12.2952	-13.3219	-15.9977	C.1
   420	2	-12.3747	-12.7391	-15.2644	C.1
   421	1	 18.0792	-14.5248	-7.94416	N.3
   422	2	 18.1129	-15.6223	-8.06722	C.1
   423	2	 17.8286	-15.3232	-7.22265	C.1
   424	2	 17.4555	-14.1943	-8.79426	C.1
   425	2	 17.1711	-13.8952	-7.94969	C.1
   426	2	 19.0956	-14.2063	-8.23784	C.1
   427	2	 18.8113	-13.9072	-7.39327	C.1
   428	1	 15.7201	 1.46762	 -18.165	N.3
   429	2	 14.8381	0.942713	-17.7559	C.1
   430	2	 15.4192	0.409368	-18.2672	C.1
   431	2	 16.1735	 1.93362	-17.2716	C.1
   432	2	 16.7547	 1.40027	-17.7829	C.1
   433	2	  15.277	 2.32655	-18.7005	C.1
   434	2	 15.8582	 1.79321	-19.2117	C.1
   435	1	-6.92118	 7.38171	 6.73386	N.3
   436	2	-6.04172	 6.79471	 6.41309	C.1
   437	2	-6.71398	  6.3024	 6.84818	C.1
   438	2	-7.23748	 7.89058	  5.8055	C.1
   439	2	-7.90974	 7.39827	 6.24059	C.1
   440	2	-6.47594	 8.19829	 7.33036	C.1
   441	2	 -7.1482	 7.70598	 7.76545	C.1
   442	1	 13.6902	   10.86	-0.0189422	N.3
   443	2	 13.9239	 10.7387	 1.05416	C.1
   444	2	 14.2558	 10.0611	0.493546	C.1
   445	2	 14.0569	 11.8777	-0.243872	C.1
   446	2	 14.3888	 11.2001	-0.804481	C.1
   447	2	 12.5918	 10.9799	-0.0261963	C.1
   448	2	 12.9237	 10.3023	-0.586805	C.1
   449	1	-6.57983	 14.1282	-17.1146	N.3
   450	2	-6.13428	 13.8625	 -16.139	C.1
   451	2	-7.06307	 13.7327	 -16.203	C.1
   452	2	-5.97368	 13.5499	 -17.835	C.1
   453	2	-6.90247	 13.4201	 -17.899	C.1
   454	2	-6.23835	 15.1669	-17.2737	C.1
   455	2	-7.16714	 15.0371	-17.3378	C.1
   456	1	 2.46854	 5.55872	 -10.834	N.3
   457	2	 2.84434	 6.56656	-10.5812	C.1
   458	2	 1.90838	 6.48056	-10.5946	C.1
   459	2	 2.99018	 4.90592	-10.1111	C.1
   460	2	 2.05422	 4.81992	-10.1245	C.1
   461	2	 2.97506	 5.33267	-11.7896	C.1
   462	2	  2.0391	 5.24667	-11.8031	C.1
   463	1	-10.8707	 1.27332	-8.36048	N.3
   464	2	-11.2638	 2.26212	-8.06271	C.1
   465	2	-10.3528	 2.24708	-8.29381	C.1
   466	2	-11.5639	0.956441	-9.16049	C.1
   467	2	-10.6528	0.941399	 -9.3916	C.1
   468	2	-11.1511	0.623975	-7.51159	C.1
   469	2	  -10.24	0.608933	 -7.7427	C.1
   470	1	-5.25125	 6.56087	 12.6619	N.3
   471	2	-4.64951	 6.81667	 11.7712	C.1
   472	2	-5.49298	 7.22917	 11.8159	C.1
   473	2	 -4.5705	 6.79099	 13.5013	C.1
   474	2	-5.41397	 7.20349	 13.5459	C.1
   475	2	-5.26854	 5.45619	 12.6464	C.1
   476	2	-6.11201	 5.86869	  12.691	C.1
   477	1	-15.8152	-15.3087	-10.0997	N.3
   478	2	-15.1209	-15.3992	-10.9545	C.1
   479	2	-16.0331	-15.3798	-11.1805	C.1
   480	2	-15.4439	 -14.415	-9.56633	C.1
   481	2	-16.3561	-14.3955	 -9.7924	C.1
   482	2	-15.5123	 -16.141	-9.43904	C.1
   483	2	-16.4245	-16.1215	-9.66511	C.1
   484	1	 2.65825	-15.9154	-7.64812	N.3
   485	2	  1.9224	-15.6405	-8.42519	C.1
   486	2	 1.55798	-15.8387	-7.58168	C.1
   487	2	 3.37124	-15.0715	-7.66555	C.1
   488	2	 3.00682	-15.2697	-6.82204	C.1
   489	2	 3.22775	-16.7369	-8.11888	C.1
   490	2	 2.86333	-16.9351	-7.27536	C.1
   491	1	-18.9126	-5.07253	-13.7085	N.3
   492	2	-18.4013	-4.99624	-14.6851	C.1
   493	2	-18.8892	-4.23481	-14.4287	C.1
   494	2	-18.0992	-5.36356	-13.0197	C.1
   495	2	-18.5871	-4.60213	-12.7632	C.1
   496	2	-19.5053	-5.99993	-13.8055	C.1
   497	2	-19.9933	 -5.2385	 -13.549	C.1
   498	1	 15.7719	0.000223818	-16.0505	N.3
   499	2	 16.0092	 1.06213	-16.2428	C.1
   500	2	 15.2285	0.745037	-16.6594	C.1
   501	2	 15.7751	-0.0635443	-14.9474	C.1
   502	2	 14.9944	-0.380636	 -15.364	C.1
   503	2	 16.7026	-0.522276	-16.3363	C.1
   504	2	 15.9219	-0.839368	-16.7529	C.1
   505	1	-13.0663	-9.90615	 16.5622	N.3
   506	2	-13.3411	-10.9715	 16.6647	C.1
   507	2	-12.4502	-10.7656	 16.8827	C.1
   508	2	-13.8305	-9.38862	 17.1697	C.1
   509	2	-12.9396	-9.18272	 17.3877	C.1
   510	2	-13.3637	-9.66721	 15.5252	C.1
   511	2	-12.4728	-9.46131	 15.7432	C.1
   512	1	-15.3617	 16.0034	-9.04233	N.3
   513	2	-15.9362	  16.164	-8.11227	C.1
   514	2	-16.1667	 15.3919	-8.59628	C.1
   515	2	-14.3116	 16.0485	-8.70155	C.1
   516	2	 -14.542	 15.2764	-9.18556	C.1
   517	2	-15.4915	 16.9558	-9.58716	C.1
   518	2	 -15.722	 16.1837	-10.0712	C.1
   519	1	 16.5521	-18.1544	 -2.8735	N.3
   520	2	 17.0769	-17.4332	-2.22127	C.1
   521	2	 17.6174	-17.8613	-2.86013	C.1
   522	2	 15.7172	-17.5602	-3.28659	C.1
   523	2	 16.2577	-17.9883	-3.92544	C.1
   524	2	 16.0515	-18.8275	-2.15435	C.1
   525	2	  16.592	-19.2556	 -2.7932	C.1
   526	1	-14.7456	-1.72055	 1.61824	N.3
   527	2	-15.7893	-2.08234	 1.64278	C.1
   528	2	-15.1371	-2.72915	 1.84251	C.1
   529	2	-14.7648	-0.847743	 2.29551	C.1
   530	2	-14.1126	-1.49456	 2.49524	C.1
   531	2	-14.6609	-1.26134	0.616829	C.1
   532	2	-14.0087	-1.90816	0.816556	C.1
   533	1	 11.0622	0.558589	-6.51265	N.3
   534	2	 10.8885	 1.60985	-6.80519	C.1
   535	2	 11.4515	 1.12291	-7.37915	C.1
   536	2	 10.0396	0.154561	-6.40334	C.1
   537	2	 10.6027	-0.33238	 -6.9773	C.1
   538	2	 11.4138	0.641767	-5.46848	C.1
   539	2	 11.9769	0.154825	-6.04244	C.1
   540	1	-17.2675	 3.08583	 3.35677	N.3
   541	2	 -16.837	 2.06819	  3.3565	C.1
   542	2	-17.2954	 2.30823	 4.14128	C.1
   543	2	-17.8746	  3.1035	 2.43377	C.1
   544	2	 -18.333	 3.34353	 3.21855	C.1
   545	2	-16.4032	 3.72574	 3.10287	C.1
   546	2	-16.8616	 3.96578	 3.88764	C.1
   547	1	  -15.33	-19.3668	 7.33163	N.3
   548	2	-15.7466	-19.7886	  8.2641	C.1
   549	2	-15.1232	 -19.095	 8.38247	C.1
   550	2	 -16.231	-19.0952	 6.75265	C.1
   551	2	-15.6076	-18.4016	 6.87102	C.1
   552	2	-14.9474	-20.2571	  6.8006	C.1
   553	2	-14.3241	-19.5635	 6.91897	C.1
   554	1	-15.9883	-7.50528	 6.65786	N.3
   555	2	-16.4126	-7.83611	 5.69275	C.1
   556	2	 -15.529	-8.11176	 5.85655	C.1
   557	2	-16.7339	-7.85476	 7.39462	C.1
   558	2	-15.8503	-8.13041	 7.55843	C.1
   559	2	-16.1439	 -6.4115	  6.6405	C.1
   560	2	-15.2603	-6.68715	 6.80431	C.1
   561	1	  10.824	 18.2773	-6.64271	N.3
   562	2	 11.4849	  18.532	-5.79459	C.1
   563	2	  11.505	 17.6306	-6.06048	C.1
   564	2	 11.1204	 19.0035	-7.42086	C.1
   565	2	 11.1405	 18.1022	-7.68675	C.1
   566	2	 9.83659	 18.6483	-6.31385	C.1
   567	2	 9.85672	 17.7469	-6.57974	C.1
   568	1	-16.6031	 6.69396	-7.92217	N.3
   569	2	-15.9928	 5.77493	-7.86045	C.1
   570	2	-16.7956	 5.75533	-7.37188	C.1
   571	2	-16.7187	 6.84781	-9.01021	C.1
   572	2	-17.5215	 6.82821	-8.52163	C.1
   573	2	-15.8936	 7.48853	-7.62872	C.1
   574	2	-16.6964	 7.46893	-7.14014	C.1
   575	1	   11.14	 1.49568	  8.4742	N.3
   576	2	 11.6359	  1.1951	 9.41476	C.1
   577	2	 12.1266	 1.78896	 8.87611	C.1
   578	2	 10.1586	 1.87186	 8.81509	C.1
   579	2	 10.6494	 2.46571	 8.27644	C.1
   580	2	 10.8895	0.529291	 8.00072	C.1
   581	2	 11.3802	 1.12315	 7.46207	C.1
   582	1	 6.23374	-18.1034	-14.5127	N.3
   583	2	  7.0116	-17.4091	-14.8785	C.1
   584	2	 6.26808	-17.5107	-15.4446	C.1
   585	2	 6.00613	-17.7181	-13.5024	C.1
   586	2	 5.26261	-17.8197	-14.0685	C.1
   587	2	 6.79877	-19.0306	 -14.308	C.1
   588	2	 6.05525	-19.1322	-14.8741	C.1
   589	1	 3.17587	-9.37544	 16.6892	N.3
   590	2	 3.07544	-10.4195	 17.0366	C.1
   591	2	  3.5219	-10.3123	 16.2163	C.1
   592	2	 3.64588	-8.86684	 17.5501	C.1
   593	2	 4.09233	-8.75957	 16.7299	C.1
   594	2	 2.13661	-9.00086	 16.7111	C.1
   595	2	 2.58306	-8.89359	 15.8909	C.1
   596	1	-17.9493	-1.31775	-17.3772	N.3
   597	2	-17.2433	-0.856393	-16.6633	C.1
   598	2	-17.7947	-1.52718	-16.3033	C.1
   599	2	-17.2946	-1.64212	 -18.206	C.1
   600	2	 -17.846	-2.31291	 -17.846	C.1
   601	2	-18.4829	-0.448551	-17.8021	C.1
   602	2	-19.0343	-1.11934	-17.4421	C.1
   603	1	  6.5503	-8.42207	  7.7153	N.3
   604	2	 6.00859	-9.28812	  8.1365	C.1
   605	2	 6.28784	 -8.6471	 8.76476	C.1
   606	2	 5.86171	 -8.0479	  6.9364	C.1
   607	2	 6.14096	-7.40689	 7.56466	C.1
   608	2	 7.36174	-8.89172	 7.13061	C.1
   609	2	 7.64099	 -8.2507	 7.75887	C.1
   610	1	 -7.7276	-13.9229	-6.27404	N.3
   611	2	-7.09375	-14.4412	-5.53209	C.1
   612	2	-6.75058	-13.6265	-5.85156	C.1
   613	2	-8.70624	-13.8537	-5.76579	C.1
   614	2	-8.36307	 -13.039	-6.08525	C.1
   615	2	-7.89755	-14.6959	-7.04504	C.1
   616	2	-7.55438	-13.8812	 -7.3645	C.1
   617	1	-11.6998	-6.28301	-0.771297	N.3
   618	2	-10.7391	-6.49312	-0.267576	C.1
   619	2	-11.0607	-7.18309	-0.819032	C.1
   620	2	 -11.512	-5.32163	-1.28252	C.1
   621	2	-11.8337	 -6.0116	-1.83397	C.1
   622	2	-12.3659	-5.99932	0.0633874	C.1
   623	2	-12.6875	-6.68929	-0.488069	C.1
   624	1	-19.7289	 19.2562	-17.7628	N.3
   625	2	 -18.823	 19.8346	-18.0194	C.1
   626	2	-19.6264	 20.3223	-18.0346	C.1
   627	2	 -19.472	 18.8038	-16.7881	C.1
   628	2	-20.2754	 19.2915	-16.8032	C.1
   629	2	-19.6864	 18.3986	-18.4583	C.1
   630	2	-20.4899	 18.8864	-18.4734	C.1
   631	1	0.681485	-8.45462	 19.5482	N.3
   632	2	0.753243	-9.00809	 20.5018	C.1
   633	2	  1.4219	 -9.2081	 19.8721	C.1
   634	2	0.640906	-7.39879	 19.8714	C.1
   635	2	 1.30956	 -7.5988	 19.2417	C.1
   636	2	-0.352681	-8.65696	 19.2159	C.1
   637	2	0.315977	-8.85696	 18.5862	C.1
   638	1	 18.7424	 -18.338	 14.8728	N.3
   639	2	 19.6509	-18.4749	 15.4866	C.1
   640	2	 19.8062	-18.2551	  14.586	C.1
   641	2	 18.1609	-17.5928	  15.445	C.1
   642	2	 18.3162	 -17.373	 14.5443	C.1
   643	2	 18.1823	-19.2761	 15.0378	C.1
   644	2	 18.3377	-19.0563	 14.1372	C.1
   645	1	  -12.46	 2.96019	-18.8236	N.3
   646	2	-11.9543	 1.99852	-18.6228	C.1
   647	2	 -12.192	 2.14546	-19.5202	C.1
   648	2	-11.7666	 3.70498	-18.3931	C.1
   649	2	-12.0044	 3.85192	-19.2906	C.1
   650	2	-13.3025	 2.95665	-18.1087	C.1
   651	2	-13.5403	 3.10358	-19.0062	C.1
   652	1	 8.31186	-15.5793	 15.5888	N.3
   653	2	 8.58565	-15.5523	 14.5186	C.1
   654	2	 9.18151	-15.1093	 15.0951	C.1
   655	2	 8.17917	 -16.658	 15.7883	C.1
   656	2	 8.77503	 -16.215	 16.3648	C.1
   657	2	 7.27699	-15.1922	 15.5946	C.1
   658	2	 7.87284	-14.7493	 16.1711	C.1
   659	1	 13.7922	-3.25114	 15.1841	N.3
   660	2	 13.2883	-2.69922	 15.9979	C.1
   661	2	 13.3685	-3.62597	 16.1332	C.1
   662	2	 14.7477	-2.70909	 15.0652	C.1
   663	2	 14.8279	-3.63583	 15.2005	C.1
   664	2	 13.2204	-2.95498	 14.2862	C.1
   665	2	 13.3006	-3.88173	 14.4215	C.1
   666	1	 11.8627	-16.0011	0.499362	N.3
   667	2	 12.8451	-16.4068	0.801287	C.1
   668	2	 12.8292	-15.4823	0.632062	C.1
   669	2	 11.1895	-16.3428	 1.30612	C.1
   670	2	 11.1736	-15.4183	  1.1369	C.1
   671	2	 11.5773	-16.6403	-0.355485	C.1
   672	2	 11.5614	-15.7158	-0.52471	C.1
   673	1	 13.6403	-18.5957	-6.88053	N.3
   674	2	  14.252	-19.4953	-7.07415	C.1
   675	2	 13.4833	-19.6391	-6.55259	C.1
   676	2	 13.4531	-18.1948	-7.89301	C.1
   677	2	 12.6844	-18.3386	-7.37146	C.1
   678	2	  14.369	-17.8813	-6.45677	C.1
   679	2	 13.6003	 -18.025	-5.93521	C.1
   680	1	 3.93355	0.0568918	 7.02974	N.3
   681	2	 3.36433	-0.426302	 7.84425	C.1
   682	2	 3.98786	-0.979312	 7.40952	C.1
   683	2	   4.359	0.953161	 7.51611	C.1
   684	2	 4.98253	 0.40015	 7.08138	C.1
   685	2	 3.14202	0.473332	 6.38097	C.1
   686	2	 3.76555	-0.0796789	 5.94624	C.1
   687	1	 9.40741	0.390094	 19.1899	N.3
   688	2	 9.08734	 1.44422	 19.2751	C.1
   689	2	 8.42359	0.807793	 19.4701	C.1
   690	2	 10.3046	0.345686	 19.8333	C.1
   691	2	 9.64083	-0.290739	 20.0282	C.1
   692	2	 9.82594	0.335014	 18.1688	C.1
   693	2	 9.16219	-0.301412	 18.3637	C.1
   694	1	 13.8929	-14.8745	-0.0435392	N.3
   695	2	 13.9898	-15.5191	-0.935762	C.1
   696	2	 13.3069	-14.8747	-0.98029	C.1
   697	2	 14.9128	-14.4703	0.0879815	C.1
   698	2	 14.2299	-13.8259	0.0434528	C.1
   699	2	 13.8005	-15.6009	0.783956	C.1
   700	2	 13.1176	-14.9565	0.739427	C.1
   701	1	-11.9507	 9.16167	0.00229024	N.3
   702	2	-12.6961	 8.35273	-0.10214	C.1
   703	2	-11.8071	  8.0661	0.0031646	C.1
   704	2	-12.3508	 9.76789	0.834907	C.1
   705	2	-11.4618	 9.48127	0.940211	C.1
   706	2	-12.1387	 9.79433	-0.883853	C.1
   707	2	-11.2497	 9.50771	-0.778549	C.1
   708	1	 4.84739	 18.2137	  3.7634	N.3
   709	2	 4.39678	 17.2197	 3.93561	C.1
   710	2	 4.11532	 17.8941	 4.52681	C.1
   711	2	 4.63534	 18.4057	 2.69614	C.1
   712	2	 4.35388	 19.0802	 3.28734	C.1
   713	2	 5.93222	 18.0042	 3.77164	C.1
   714	2	 5.65076	 18.6786	 4.36284	C.1
   715	1	-8.92412	 16.4914	 16.6058	N.3
   716	2	-8.13725	  17.248	 16.7768	C.1
   717	2	-8.40031	 17.1403	 15.8809	C.1
   718	2	-9.72783	  16.802	 17.2975	C.1
   719	2	-9.99089	 16.6942	 16.4015	C.1
   720	2	 -8.5127	 15.5859	  17.087	C.1
   721	2	-8.77576	 15.4781	  16.191	C.1
   722	1	 7.09102	 19.0678	 7.00484	N.3
   723	2	 7.77225	  18.289	 6.61733	C.1
   724	2	 7.02484	 17.9681	 7.08852	C.1
   725	2	 6.85829	 19.6691	 6.10749	C.1
   726	2	 6.11089	 19.3482	 6.57868	C.1
   727	2	 7.76363	 19.7269	 7.58291	C.1
   728	2	 7.01623	  19.406	  8.0541	C.1
   729	1	-19.6874	-5.87976	 13.4621	N.3
   730	2	 -20.556	-5.41574	 13.9632	C.1
   731	2	-19.7215	-5.04278	 14.1827	C.1
   732	2	-19.9573	-5.83064	 12.3918	C.1
   733	2	-19.1228	-5.45767	 12.6113	C.1
   734	2	-19.8006	-6.95234	 13.7022	C.1
   735	2	-18.9661	-6.57937	 13.9216	C.1
   736	1	 7.86296	 8.00282	 18.0043	N.3
   737	2	 7.53605	 7.25101	 17.2634	C.1
   738	2	 6.85894	 7.82087	 17.5803	C.1
   739	2	  8.7037	 8.50889	 17.4964	C.1
   740	2	  8.0266	 9.07874	 17.8133	C.1
   741	2	 8.36478	 7.39379	 18.7776	C.1
   742	2	 7.68767	 7.96364	 19.0945	C.1
   743	1	 13.6519	-0.969004	-7.82131	N.3
   744	2	 14.2373	-1.64693	 -7.1743	C.1
   745	2	 14.4241	-1.71105	-8.09332	C.1
   746	2	 13.8313	0.0250322	-7.37347	C.1
   747	2	 14.0181	-0.0390871	-8.29249	C.1
   748	2	 12.6069	-1.18894	-7.53761	C.1
   749	2	 12.7937	-1.25306	-8.45664	C.1
   750	1	-9.44551	 2.69808	 -17.939	N.3
   751	2	-8.94183	 2.75694	-18.9207	C.1
   752	2	-9.80662	 3.12428	-18.8923	C.1
   753	2	-8.71499	 3.16211	 -17.252	C.1
   754	2	-9.57978	 3.52945	-17.2237	C.1
   755	2	-9.38254	 1.62417	-17.6867	C.1
   756	2	-10.2473	 1.99152	-17.6584	C.1
   757	1	-16.3607	-8.52104	 18.2183	N.3
   758	2	 -16.286	-7.53346	 17.7284	C.1
   759	2	 -17.129	-7.94543	 17.6712	C.1
   760	2	-16.0039	-8.32143	 19.2448	C.1
   761	2	-16.8468	 -8.7334	 19.1875	C.1
   762	2	-15.5279	-9.09026	 17.7676	C.1
   763	2	-16.3708	-9.50223	 17.7103	C.1
   764	1	-17.8111	 13.7768	-18.2744	N.3
   765	2	-18.5044	 14.2083	-17.5302	C.1
   766	2	-18.3815	 13.2783	-17.4701	C.1
   767	2	 -16.895	 14.3812	-18.1464	C.1
   768	2	-16.7721	 13.4512	-18.0863	C.1
   769	2	-18.2181	 14.1359	-19.2368	C.1
   770	2	-18.0952	 13.2059	-19.1767	C.1
   771	1	 19.2712	 16.8431	 4.67098	N.3
   772	2	 20.1414	 16.5555	 4.05377	C.1
   773	2	 20.1856	 16.2916	 4.95488	C.1
   774	2	 18.4141	 16.4373	 4.10387	C.1
   775	2	 18.4583	 16.1734	 5.00498	C.1
   776	2	 19.1918	 17.9324	 4.50362	C.1
   777	2	  19.236	 17.6685	 5.40473	C.1
   778	1	 1.73234	-13.1222	  11.944	N.3
   779	2	 2.11931	-13.8397	 11.1981	C.1
   780	2	 1.96044	-14.1979	 12.0525	C.1
   781	2	0.847081	-12.6902	 11.4434	C.1
   782	2	0.688206	-13.0484	 12.2978	C.1
   783	2	 2.46894	-12.2993	 11.9088	C.1
   784	2	 2.31006	-12.6575	 12.7632	C.1
   785	1	-17.8318	-1.82848	0.668706	N.3
   786	2	-18.8471	-1.49289	0.390156	C.1
   787	2	-18.6196	-1.37101	 1.29404	C.1
   788	2	-17.1841	-1.30065	-0.0542495	C.1
   789	2	-16.9566	-1.17877	0.849635	C.1
   790	2	-17.8056	-2.87472	0.314386	C.1
   791	2	-17.5781	-2.75284	 1.21827	C.1
   792	1	-3.20187	 10.9176	-17.7965	N.3
   793	2	-3.58397	 11.9499	-17.8925	C.1
   794	2	-3.08486	  11.779	-17.1145	C.1
   795	2	-2.66035	 10.7594	-18.7466	C.1
   796	2	-2.16123	 10.5884	-17.9686	C.1
   797	2	-4.10996	 10.2998	-17.9175	C.1
   798	2	-3.61085	 10.1289	-17.1395	C.1
   799	1	 11.1889	-6.29994	-13.1999	N.3
   800	2	 11.6477	-6.74293	-12.2976	C.1
   801	2	 12.2248	-6.64663	-13.0334	C.1
   802	2	  10.747	   -5.36	-12.8231	C.1
   803	2	  11.324	 -5.2637	-13.5588	C.1
   804	2	 10.3065	-6.94136	-13.3755	C.1
   805	2	 10.8836	-6.84506	-14.1112	C.1
   806	1	-2.36234	   3.204	 2.33456	N.3
   807	2	-2.95674	 2.39177	 2.79047	C.1
   808	2	-2.85374	 2.33677	 1.85775	C.1
   809	2	-1.42135	 3.18386	 2.91333	C.1
   810	2	-1.31834	 3.12886	 1.98061	C.1
   811	2	-2.86344	 4.11887	 2.69894	C.1
   812	2	-2.76043	 4.06387	 1.76622	C.1
   813	1	 14.9485	  4.1121	0.668548	N.3
   814	2	 14.0196	 4.24693	 1.25157	C.1
   815	2	 14.7254	  4.8221	 1.48527	C.1
   816	2	 14.6037	 4.19241	-0.378113	C.1
   817	2	 15.3095	 4.76758	-0.144414	C.1
   818	2	 15.1635	 3.03422	0.781633	C.1
   819	2	 15.8693	 3.60939	 1.01533	C.1
   820	1	-17.5476	 -19.488	-18.4019	N.3
   821	2	-16.9998	-19.6158	 -19.353	C.1
   822	2	-17.7591	-19.0636	-19.3999	C.1
   823	2	-16.7627	-19.1492	-17.7019	C.1
   824	2	-17.5219	 -18.597	-17.7489	C.1
   825	2	-17.7414	-20.5272	-18.0804	C.1
   826	2	-18.5006	 -19.975	-18.1274	C.1
   827	1	-11.3341	-17.1299	 18.0227	N.3
   828	2	-12.0865	-16.3212	 17.9957	C.1
   829	2	-12.2601	-17.0084	 18.6132	C.1
   830	2	-10.3848	-16.5866	 18.1788	C.1
   831	2	-10.5583	-17.2738	 18.7962	C.1
   832	2	-11.2707	-17.4512	 16.9674	C.1
   833	2	-11.4443	-18.1384	 17.5849	C.1
   834	1	 13.2682	-2.96548	 19.7032	N.3
   835	2	 13.2723	-2.16545	 20.4654	C.1
   836	2	 12.4527	-2.61359	 20.3604	C.1
   837	2	 14.1182	-3.60447	 20.0033	C.1
   838	2	 13.2986	-4.05261	 19.8984	C.1
   839	2	 13.6436	-2.45431	 18.7985	C.1
   840	2	  12.824	-2.90245	 18.6935	C.1
   841	1	-17.6616	 2.19193	 18.3296	N.3
   842	2	-18.0599	 1.67118	 19.2191	C.1
   843	2	-17.3379	 1.24365	 18.7953	C.1
   844	2	-17.4504	 3.20909	  18.706	C.1
   845	2	-16.7284	 2.78156	 18.2822	C.1
   846	2	-18.5576	 2.33682	 17.6995	C.1
   847	2	-17.8357	  1.9093	 17.2757	C.1
   848	1	 -14.345	-12.8798	 18.6142	N.3
   849	2	 -14.703	-12.9515	 19.6571	C.1
   850	2	-14.1886	-12.1893	 19.4625	C.1
   851	2	-15.2713	-12.9856	 18.0212	C.1
   852	2	-14.7568	-12.2233	 17.8267	C.1
   853	2	-13.8323	-13.8458	 18.4562	C.1
   854	2	-13.3178	-13.0835	 18.2616	C.1
   855	1	-10.0601	-8.17928	 13.2107	N.3
   856	2	-10.6378	-7.24062	 13.2886	C.1
   857	2	-10.9819	-7.87285	  12.684	C.1
   858	2	-9.99063	-8.52092	 14.2591	C.1
   859	2	-10.3347	-9.15314	 13.6546	C.1
   860	2	-9.03581	-7.82797	 12.9911	C.1
   861	2	-9.37989	 -8.4602	 12.3865	C.1
   862	1	-3.10087	-3.57567	 8.19576	N.3
   863	2	-3.66833	-2.63095	 8.27576	C.1
   864	2	-3.03821	-2.77786	 8.95765	C.1
   865	2	-2.68541	-3.53492	 7.17273	C.1
   866	2	 -2.0553	-3.68183	 7.85462	C.1
   867	2	-3.89403	-4.34077	 8.11595	C.1
   868	2	-3.26392	-4.48768	 8.79784	C.1
   869	1	0.355702	   3.268	-6.80335	N.3
   870	2	 1.40385	 3.17803	-7.14127	C.1
   871	2	0.768733	 3.26944	 -7.8282	C.1
   872	2	0.393362	 4.10547	-6.08358	C.1
   873	2	-0.241757	 4.19688	 -6.7705	C.1
   874	2	0.222572	 2.38338	-6.15483	C.1
   875	2	-0.412547	 2.47479	-6.84175	C.1
   876	1	 10.0079	 11.1045	 8.20262	N.3
   877	2	 10.9271	 11.7104	  8.2966	C.1
   878	2	 10.8358	 11.2458	 7.48459	C.1
   879	2	 9.20373	 11.8298	 8.42213	C.1
   880	2	  9.1124	 11.3651	 7.61012	C.1
   881	2	 10.0298	 10.4703	 9.10714	C.1
   882	2	 9.93846	 10.0057	 8.29513	C.1
   883	1	 13.1454	-6.91136	-11.6057	N.3
   884	2	  12.614	-6.72173	-10.6556	C.1
   885	2	 12.2417	-6.30585	-11.4119	C.1
   886	2	 13.1942	-8.01423	 -11.652	C.1
   887	2	 12.8219	-7.59836	-12.4083	C.1
   888	2	 14.1865	-6.62194	-11.3749	C.1
   889	2	 13.8141	-6.20606	-12.1312	C.1
   890	1	-9.35603	-13.1305	-16.7259	N.3
   891	2	-10.3596	-12.8282	-16.3761	C.1
   892	2	-10.3513	-13.4905	-17.0431	C.1
   893	2	 -8.8328	 -13.399	-15.7904	C.1
   894	2	-8.82453	-14.0613	-16.4574	C.1
   895	2	-8.88807	-12.1709	-17.0105	C.1
   896	2	 -8.8798	-12.8332	-17.6775	C.1
   897	1	-7.02783	-15.6231	 9.72831	N.3
   898	2	 -7.5726	-14.7063	 9.43902	C.1
   899	2	-7.22406	-15.2069	 8.72375	C.1
   900	2	-7.75435	 -16.158	 10.3662	C.1
   901	2	-7.40581	-16.6585	 9.65097	C.1
   902	2	-6.27936	-15.2542	 10.4526	C.1
   903	2	-5.93081	-15.7547	 9.73732	C.1
   904	1	-18.2876	 5.38775	-17.8131	N.3
   905	2	-17.7931	 4.64811	-18.4684	C.1
   906	2	-17.5474	  4.6067	 -17.562	C.1
   907	2	-19.3617	 5.22744	-18.0167	C.1
   908	2	-19.1159	 5.18602	-17.1103	C.1
   909	2	-18.0764	 6.34982	-18.3138	C.1
   910	2	-17.8307	  6.3084	-17.4074	C.1
   911	1	-14.5173	 13.5421	-10.5655	N.3
   912	2	-14.3517	 13.5879	 -11.657	C.1
   913	2	-14.4783	 14.4191	-11.2365	C.1
   914	2	-13.6517	  12.959	-10.2029	C.1
   915	2	-13.7783	 13.7902	-9.78243	C.1
   916	2	-15.3587	 12.8327	-10.4673	C.1
   917	2	-15.4854	 13.6639	-10.0468	C.1
   918	1	-8.23901	-15.9263	-16.7615	N.3
   919	2	-8.29805	-15.6832	-17.8378	C.1
   920	2	-7.59024	-15.2742	-17.3737	C.1
   921	2	-8.23091	-17.0312	-16.7523	C.1
   922	2	 -7.5231	-16.6223	-16.2882	C.1
   923	2	-9.24979	-15.6781	-16.3906	C.1
   924	2	-8.54198	-15.2691	-15.9266	C.1
   925	1	 18.9101	 3.42602	0.544819	N.3
   926	2	 18.5932	 4.20011	-0.177159	C.1
   927	2	 18.1959	 3.35643	-0.295436	C.1
   928	2	 18.7209	 3.90143	 1.52414	C.1
   929	2	 18.3237	 3.05775	 1.40586	C.1
   930	2	  20.012	 3.44204	0.464891	C.1
   931	2	 19.6147	 2.59836	0.346614	C.1
   932	1	-5.47456	0.363753	-18.3172	N.3
   933	2	 -5.7378	0.149478	-19.3687	C.1
   934	2	-6.46075	0.383024	-18.8152	C.1
   935	2	-4.68377	 1.13032	-18.4059	C.1
   936	2	-5.40671	 1.36386	-17.8524	C.1
   937	2	-4.91771	-0.538854	-18.0072	C.1
   938	2	-5.64065	-0.305309	-17.4537	C.1
   939	1	 9.35647	 5.79695	 14.3141	N.3
   940	2	 10.1678	 5.21564	 14.7882	C.1
   941	2	 9.57284	 4.71474	 14.2602	C.1
   942	2	 9.89859	 6.59805	   13.78	C.1
   943	2	 9.30367	 6.09716	  13.252	C.1
   944	2	 8.89546	 6.32852	  15.166	C.1
   945	2	 8.30054	 5.82762	  14.638	C.1
   946	1	-4.15144	  10.282	-1.96397	N.3
   947	2	-3.05947	 10.2672	-2.13211	C.1
   948	2	 -3.5725	 9.84907	-2.79961	C.1
   949	2	-4.36832	  11.354	-1.80692	C.1
   950	2	-4.88135	 10.9359	-2.47442	C.1
   951	2	-4.25699	 9.85204	-0.951626	C.1
   952	2	-4.77002	  9.4339	-1.61913	C.1
   953	1	-11.9842	-14.3695	 5.17602	N.3
   954	2	-11.0103	-13.9486	 4.86756	C.1
   955	2	-11.1361	-14.0268	 5.79581	C.1
   956	2	-12.0391	-15.3185	 4.61268	C.1
   957	2	-12.1649	-15.3967	 5.54093	C.1
   958	2	-12.7146	-13.7242	 4.65544	C.1
   959	2	-12.8404	-13.8024	  5.5837	C.1
   960	1	-9.68181	-7.45356	-8.35943	N.3
   961	2	-9.23205	-7.07172	-7.42519	C.1
   962	2	-9.94706	-7.67078	-7.30902	C.1
   963	2	-8.81396	-7.85873	-8.91037	C.1
   964	2	-9.52897	-8.45779	-8.79421	C.1
   965	2	 -9.9269	-6.53165	-8.91698	C.1
   966	2	-10.6419	-7.13071	-8.80082	C.1
   967	1	 11.1977	-19.4755	 8.39281	N.3
   968	2	 10.7063	-20.1321	 7.65236	C.1
   969	2	 11.1975	 -20.578	 8.31835	C.1
   970	2	  10.368	-18.8464	 8.76253	C.1
   971	2	 10.8592	-19.2923	 9.42852	C.1
   972	2	  11.782	-18.7793	 7.76455	C.1
   973	2	 12.2732	-19.2251	 8.43054	C.1
   974	1	 2.37399	 17.0011	 17.0798	N.3
   975	2	 1.80982	 17.8937	 16.7546	C.1
   976	2	 2.42274	 18.0403	  17.452	C.1
   977	2	 2.81388	 16.6237	  16.139	C.1
   978	2	  3.4268	 16.7703	 16.8365	C.1
   979	2	 1.57889	 16.2659	 17.2995	C.1
   980	2	 2.19182	 16.4125	 17.9969	C.1
   981	1	-11.5398	-7.31223	 19.8481	N.3
   982	2	 -12.256	-7.93311	  20.416	C.1
   983	2	-11.4463	 -8.3568	  20.196	C.1
   984	2	-11.4415	-6.40555	 20.4719	C.1
   985	2	-10.6318	-6.82924	 20.2518	C.1
   986	2	-12.1366	-6.96249	 18.9865	C.1
   987	2	-11.3269	-7.38618	 18.7664	C.1
   988	1	-2.51946	 14.7788	 6.20914	N.3
   989	2	-2.29587	 13.7748	 6.61277	C.1
   990	2	 -3.1886	 14.0538	 6.70664	C.1
   991	2	-2.15227	 14.7202	 5.16866	C.1
   992	2	-3.04499	 14.9992	 5.26253	C.1
   993	2	-1.77115	 15.4228	 6.70519	C.1
   994	2	-2.66388	 15.7018	 6.79906	C.1
   995	1	-4.88913	 6.02459	 5.87229	N.3
   996	2	-5.59411	  5.4153	 6.46616	C.1
   997	2	-4.99528	 5.93731	 6.96866	C.1
   998	2	-5.55343	 6.59172	 5.19559	C.1
   999	2	 -4.9546	 7.11373	 5.69809	C.1
  1000	2	 -4.4181	 5.28373	 5.20138	C.1
  1001	2	-3.81927	 5.80574	 5.70388	C.1
  1002	1	 4.62235	-13.0087	-5.43607	N.3
  1003	2	 4.45622	-14.0774	-5.66265	C.1
  1004	2	 4.83129	-13.9011	-4.81893	C.1
  1005	2	 3.63025	-12.5558	-5.61329	C.1
  1006	2	 4.00532	-12.3795	-4.76957	C.1
  1007	2	 5.21797	-12.6574	-6.29786	C.1
  1008	2	 5.59304	-12.4812	-5.45414	C.1
  1009	1	 11.1882	 -9.2684	0.693799	N.3
  1010	2	 11.8271	-9.60263	 1.53107	C.1
  1011	2	 12.0651	-9.94061	0.686853	C.1
  1012	2	 11.2109	-8.16729	0.782688	C.1
  1013	2	  11.449	-8.50528	-0.0615297	C.1
  1014	2	 10.1696	-9.52831	 1.03396	C.1
  1015	2	 10.4076	-9.86629	0.189745	C.1
  1016	1	 3.95474	 6.18157	-16.4698	N.3
  1017	2	 3.60918	 5.94209	 -15.448	C.1
  1018	2	 3.87751	 5.20283	-15.9629	C.1
  1019	2	  4.7358	 6.94445	   -16.3	C.1
  1020	2	 5.00414	 6.20519	-16.8149	C.1
  1021	2	 3.11675	 6.76706	-16.8891	C.1
  1022	2	 3.38509	  6.0278	 -17.404	C.1
  1023	1	 6.34853	-8.30648	 12.0604	N.3
  1024	2	 6.70384	-9.35231	 12.0306	C.1
  1025	2	 6.45158	-8.99187	 11.1999	C.1
  1026	2	 7.17035	-7.77505	 12.5733	C.1
  1027	2	  6.9181	 -7.4146	 11.7426	C.1
  1028	2	 5.54979	-8.33275	 12.8234	C.1
  1029	2	 5.29753	 -7.9723	 11.9928	C.1
  1030	1	-12.8875	 2.82244	-13.5676	N.3
  1031	2	-12.8604	 3.66657	-14.2801	C.1
  1032	2	-13.4067	 2.94543	-14.5352	C.1
  1033	2	 -13.163	  3.3062	-12.6132	C.1
  1034	2	-13.7093	 2.58506	-12.8683	C.1
  1035	2	-11.8195	 2.57626	 -13.427	C.1
  1036	2	-12.3659	 1.85512	 -13.682	C.1
  1037	1	-2.31112	-13.5016	 12.1981	N.3
  1038	2	-2.41397	-12.5913	  12.816	C.1
  1039	2	-1.87092	-12.4983	 12.0543	C.1
  1040	2	-3.35859	-13.7895	 11.9962	C.1
  1041	2	-2.81555	-13.6965	 11.2346	C.1
  1042	2	-1.97537	-14.2633	 12.9247	C.1
  1043	2	-1.43233	-14.1704	  12.163	C.1
  1044	1	-11.0304	 7.99843	-4.95039	N.3
  1045	2	-11.6415	 8.72564	-5.51487	C.1
  1046	2	-12.0149	 8.43479	-4.70271	C.1
  1047	2	 -10.052	 8.50437	-4.86339	C.1
  1048	2	-10.4254	 8.21352	-4.05123	C.1
  1049	2	-10.8377	 7.20157	-5.69115	C.1
  1050	2	-11.2111	 6.91072	-4.87899	C.1
  1051	1	 18.7181	 6.90512	-3.26734	N.3
  1052	2	 19.1517	 7.90035	-3.47325	C.1
  1053	2	 19.7717	 7.19506	-3.43105	C.1
  1054	2	 17.9412	   6.802	-4.04623	C.1
  1055	2	 18.5612	 6.09671	-4.00403	C.1
  1056	2	 18.1314	 7.07094	-2.34584	C.1
  1057	2	 18.7514	 6.36565	-2.30364	C.1
  1058	1	-6.65333	-17.1313	-17.7439	N.3
  1059	2	-6.22975	 -16.775	-18.7002	C.1
  1060	2	-7.02992	-16.3577	-18.4372	C.1
  1061	2	  -5.811	-17.0201	-17.0375	C.1
  1062	2	-6.61117	-16.6028	-16.7745	C.1
  1063	2	-6.71899	-18.2248	-17.8885	C.1
  1064	2	-7.51916	-17.8075	-17.6254	C.1
  1065	1	 17.6656	-13.3691	-14.9912	N.3
  1066	2	 18.3452	-13.5686	-14.1432	C.1
  1067	2	 17.4347	-13.7274	-13.9718	C.1
  1068	2	 18.1012	-13.9689	-15.8106	C.1
  1069	2	 17.1907	-14.1276	-15.6392	C.1
  1070	2	 17.9161	-12.3315	 -15.277	C.1
  1071	2	 17.0056	-12.4903	-15.1056	C.1
  1072	1	-3.32466	-13.0002	 1.00967	N.3
  1073	2	-2.70139	-13.0604	 1.92006	C.1
  1074	2	-2.28949	-12.6532	  1.1797	C.1
  1075	2	-4.24568	-12.5049	 1.36642	C.1
  1076	2	-3.83379	-12.0977	0.626064	C.1
  1077	2	-3.64477	-14.0461	0.853071	C.1
  1078	2	-3.23287	-13.6389	0.112718	C.1
  1079	1	-6.60636	-14.1993	 5.31147	N.3
  1080	2	-6.15084	-15.1884	 5.12383	C.1
  1081	2	-6.79012	-15.1668	 5.81264	C.1
  1082	2	-6.97855	-13.8996	 4.31525	C.1
  1083	2	-7.61783	 -13.878	 5.00406	C.1
  1084	2	-5.73076	-13.5425	 5.46213	C.1
  1085	2	-6.37004	-13.5209	 6.15094	C.1
  1086	1	-5.57772	  -2.987	-16.2653	N.3
  1087	2	-6.45693	-2.33167	 -16.401	C.1
  1088	2	 -6.6152	-3.24741	-16.5423	C.1
  1089	2	-5.21919	-2.72251	-15.2542	C.1
  1090	2	-5.37745	-3.63826	-15.3955	C.1
  1091	2	-4.81963	-2.53321	-16.9288	C.1
  1092	2	 -4.9779	-3.44896	-17.0701	C.1
  1093	1	-8.99039	  15.917	 6.91993	N.3
  1094	2	-9.78295	 16.1545	 6.18758	C.1
  1095	2	-8.99953	  16.668	 6.10956	C.1
  1096	2	-8.85223	 14.8275	 6.79821	C.1
  1097	2	-8.06881	 15.3411	 6.72019	C.1
  1098	2	-9.51111	 15.9986	 7.89103	C.1
  1099	2	-8.72769	 16.5121	 7.81302	C.1
  1100	1	 12.6583	-4.11975	 17.4685	N.3
  1101	2	 13.0208	-3.42624	 18.2486	C.1
  1102	2	 13.1376	-4.33919	 18.4396	C.1
  1103	2	 13.1676	-3.76164	 16.5557	C.1
  1104	2	 13.2844	-4.67459	 16.7467	C.1
  1105	2	 11.6113	-3.80194	 17.3147	C.1
  1106	2	 11.7281	-4.71489	 17.5057	C.1
  1107	1	 -13.873	 19.6672	 14.4258	N.3
  1108	2	 -14.112	 19.2962	 15.4387	C.1
  1109	2	-13.8608	 20.2009	 15.3932	C.1
  1110	2	-14.7706	 19.3986	 13.8401	C.1
  1111	2	-14.5194	 20.3033	 13.7945	C.1
  1112	2	-13.1132	 18.9498	 14.0668	C.1
  1113	2	 -12.862	 19.8545	 14.0212	C.1
  1114	1	-1.29514	 8.73429	 11.4152	N.3
  1115	2	-0.642877	 8.02424	 11.9549	C.1
  1116	2	-1.17819	 8.57026	 12.5016	C.1
  1117	2	-1.84891	  8.0851	 10.7132	C.1
  1118	2	-2.38423	 8.63112	 11.2599	C.1
  1119	2	-0.590654	  9.2745	 10.7573	C.1
  1120	2	-1.12597	 9.82052	  11.304	C.1
  1121	1	-10.9706	 5.65009	-8.48876	N.3
  1122	2	-11.4609	 4.71983	-8.14942	C.1
  1123	2	 -10.523	 4.68219	-8.19948	C.1
  1124	2	-11.3742	 6.41405	-7.80007	C.1
  1125	2	-10.4363	 6.37642	-7.85013	C.1
  1126	2	-11.4836	 5.87284	-9.44171	C.1
  1127	2	-10.5457	 5.83521	-9.49177	C.1
  1128	1	-12.8272	-0.533822	 11.8371	N.3
  1129	2	-12.6839	0.501965	   11.48	C.1
  1130	2	-13.3613	0.018546	 11.0429	C.1
  1131	2	 -12.967	-0.408586	 12.9259	C.1
  1132	2	-13.6444	-0.892005	 12.4889	C.1
  1133	2	-11.8148	-0.969715	 11.7608	C.1
  1134	2	-12.4922	-1.45313	 11.3238	C.1
  1135	1	0.567276	-1.18782	 4.36391	N.3
  1136	2	 1.19109	 -1.4081	 5.24891	C.1
  1137	2	 1.08479	-0.495154	 5.05186	C.1
  1138	2	-0.369279	-1.73582	 4.57229	C.1
  1139	2	-0.475574	-0.82287	 4.37524	C.1
  1140	2	 1.03946	-1.78898	 3.56609	C.1
  1141	2	0.933169	-0.876028	 3.36904	C.1
  1142	1	-6.08132	 18.8227	-12.0909	N.3
  1143	2	-7.14286	 18.5482	-12.2275	C.1
  1144	2	-6.96165	 19.4701	-12.2545	C.1
  1145	2	-5.56361	 18.2193	-12.8582	C.1
  1146	2	 -5.3824	 19.1413	-12.8852	C.1
  1147	2	-5.80932	 18.3177	-11.1466	C.1
  1148	2	 -5.6281	 19.2396	-11.1735	C.1
  1149	1	 2.67872	-10.6137	-12.0514	N.3
  1150	2	 2.97778	-10.6387	 -10.988	C.1
  1151	2	 2.69455	    -9.8	-11.3041	C.1
  1152	2	  1.9272	-11.4207	-12.1215	C.1
  1153	2	 1.64397	 -10.582	-12.4375	C.1
  1154	2	 3.55604	-11.0399	-12.5706	C.1
  1155	2	  3.2728	-10.2012	-12.8867	C.1
  1156	1	-3.22828	 10.7935	-0.195629	N.3
  1157	2	-4.02611	 11.5577	-0.214863	C.1
  1158	2	-4.30897	 10.6797	-0.395772	C.1
  1159	2	-2.76014	 10.9419	0.794156	C.1
  1160	2	-3.04301	 10.0639	0.613246	C.1
  1161	2	 -2.4743	 11.1979	-0.894814	C.1
  1162	2	-2.75716	 10.3199	-1.07572	C.1
  1163	1	-7.07108	 18.1642	  7.9083	N.3
  1164	2	-6.77775	 17.7414	 8.88612	C.1
  1165	2	-7.24902	 18.5537	 8.92688	C.1
  1166	2	-7.61192	 17.3308	 7.42478	C.1
  1167	2	-8.08319	 18.1431	 7.46555	C.1
  1168	2	-6.11666	 18.2019	 7.35286	C.1
  1169	2	-6.58793	 19.0142	 7.39363	C.1
  1170	1	-11.8431	 12.9135	 -12.821	N.3
  1171	2	-11.0001	 13.0512	-13.5219	C.1
  1172	2	-11.0396	   12.21	-13.1044	C.1
  1173	2	-12.7253	 13.1767	-13.4319	C.1
  1174	2	-12.7647	 12.3355	-13.0144	C.1
  1175	2	-11.7447	 13.7743	-12.1353	C.1
  1176	2	-11.7841	 12.9331	-11.7178	C.1
  1177	1	 14.2167	-16.9224	 1.06324	N.3
  1178	2	 13.1932	-16.5521	0.872704	C.1
  1179	2	 13.2535	-17.4629	 1.09722	C.1
  1180	2	 14.5999	-16.2234	 1.82833	C.1
  1181	2	 14.6602	-17.1342	 2.05284	C.1
  1182	2	 14.7665	-16.6256	0.151929	C.1
  1183	2	 14.8268	-17.5364	0.376445	C.1
  1184	1	-9.03357	 7.42393	-7.95999	N.3
  1185	2	 -9.4857	 6.41802	-8.02788	C.1
  1186	2	-10.0889	 7.13403	-8.11225	C.1
  1187	2	-8.23215	 7.39246	   -8.72	C.1
  1188	2	-8.83532	 8.10847	-8.80436	C.1
  1189	2	-8.47809	  7.3873	-7.00555	C.1
  1190	2	-9.08125	 8.10331	-7.08992	C.1
  1191	1	 5.54956	  2.9843	  16.497	N.3
  1192	2	 4.70557	 3.02668	 17.2089	C.1
  1193	2	 4.79779	 3.77894	 16.6528	C.1
  1194	2	 5.38733	 2.02703	 15.9696	C.1
  1195	2	 5.47955	 2.77929	 15.4135	C.1
  1196	2	 6.41747	 2.77081	 17.1467	C.1
  1197	2	 6.50969	 3.52306	 16.5906	C.1
  1198	1	 15.2111	-7.17415	 8.33829	N.3
  1199	2	 14.8098	-8.13589	 8.70564	C.1
  1200	2	 14.3765	-7.36972	 9.03553	C.1
  1201	2	 15.1851	 -7.2926	 7.24004	C.1
  1202	2	 14.7518	-6.52643	 7.56993	C.1
  1203	2	 16.2883	-7.24321	 8.57435	C.1
  1204	2	  15.855	-6.47704	 8.90424	C.1
  1205	1	-1.84354	 7.92941	-5.19655	N.3
  1206	2	-0.983406	  8.5454	-4.87776	C.1
  1207	2	-1.07034	 8.43027	-5.80663	C.1
  1208	2	-2.70172	 8.41828	-4.70119	C.1
  1209	2	-2.78866	 8.30315	-5.63005	C.1
  1210	2	-1.71509	 6.99724	-4.61739	C.1
  1211	2	-1.80202	 6.88211	-5.54626	C.1
  1212	1	 3.09078	  4.6078	 -18.231	N.3
  1213	2	   2.384	 5.44381	-18.0812	C.1
  1214	2	 3.18841	 5.67235	-18.5105	C.1
  1215	2	 2.47867	  3.8499	-18.7524	C.1
  1216	2	 3.28308	 4.07845	-19.1817	C.1
  1217	2	 3.20304	 4.18686	-17.2156	C.1
  1218	2	 4.00746	 4.41541	-17.6449	C.1
  1219	1	-14.7666	 7.11747	-19.1417	N.3
  1220	2	-15.4875	 6.92852	-19.9574	C.1
  1221	2	-15.8102	 7.46253	-19.2543	C.1
  1222	2	-13.8852	 7.52091	 -19.672	C.1
  1223	2	-14.2078	 8.05492	-18.9689	C.1
  1224	2	 -14.443	 6.10197	-18.8503	C.1
  1225	2	-14.7656	 6.63598	-18.1472	C.1
  1226	1	-3.99699	 6.95292	-0.256407	N.3
  1227	2	-3.57778	 6.52465	-1.18471	C.1
  1228	2	-3.28209	  6.1209	-0.388993	C.1
  1229	2	 -5.0876	 6.90967	-0.428306	C.1
  1230	2	-4.79192	 6.50593	 0.36741	C.1
  1231	2	-3.76911	 8.03005	-0.349781	C.1
  1232	2	-3.47343	 7.62631	0.445936	C.1
  1233	1	 13.3601	-19.2682	 13.4143	N.3
  1234	2	 13.5487	-19.1776	 12.3293	C.1
  1235	2	 14.2238	-19.6129	 12.8175	C.1
  1236	2	 12.3652	-19.7466	 13.4586	C.1
  1237	2	 13.0403	-20.1819	 13.9468	C.1
  1238	2	 13.1539	-18.2274	 13.7226	C.1
  1239	2	  13.829	-18.6627	 14.2108	C.1
  1240	1	-10.5929	 7.56967	 19.2383	N.3
  1241	2	-10.6786	 8.28797	 20.0736	C.1
  1242	2	-11.4001	 8.28754	  19.471	C.1
  1243	2	-10.4075	 6.60814	 19.7501	C.1
  1244	2	-11.1289	 6.60772	 19.1475	C.1
  1245	2	-9.61057	 7.81354	 18.7953	C.1
  1246	2	 -10.332	 7.81311	 18.1926	C.1
  1247	1	-15.3278	-16.4031	 12.1959	N.3
  1248	2	 -14.344	-15.9604	  11.957	C.1
  1249	2	-14.7871	-16.3642	 11.2331	C.1
  1250	2	-15.8715	-15.5679	  12.673	C.1
  1251	2	-16.3146	-15.9717	  11.949	C.1
  1252	2	-15.1032	-17.0752	 13.0436	C.1
  1253	2	-15.5463	-17.4791	 12.3197	C.1
  1254	1	 2.01675	-11.6245	-8.38716	N.3
  1255	2	  2.4496	-11.3775	-7.40099	C.1
  1256	2	  2.2471	-12.2859	-7.53258	C.1
  1257	2	 2.74762	-11.1981	-9.09774	C.1
  1258	2	 2.54512	-12.1066	-9.22933	C.1
  1259	2	 1.15679	-10.9351	-8.46537	C.1
  1260	2	0.954288	-11.8436	-8.59696	C.1
  1261	1	-7.67012	 10.1823	-8.79855	N.3
  1262	2	-7.78995	 11.2782	-8.87286	C.1
  1263	2	-8.55514	 10.8105	-8.59121	C.1
  1264	2	-6.78397	 10.0686	-8.14843	C.1
  1265	2	-7.54916	 9.60093	-7.86677	C.1
  1266	2	-7.28866	 9.90166	-9.79683	C.1
  1267	2	-8.05386	 9.43396	-9.51517	C.1
  1268	1	-10.8026	 -5.0971	-6.84749	N.3
  1269	2	-10.5788	-5.57471	-5.87656	C.1
  1270	2	-9.89829	-5.02273	 -6.2169	C.1
  1271	2	-11.7688	-4.59341	-6.66447	C.1
  1272	2	-11.0883	-4.04142	-7.00481	C.1
  1273	2	-11.0808	-5.95115	-7.49094	C.1
  1274	2	-10.4003	-5.39916	-7.83127	C.1
  1275	1	 16.1885	 15.7356	  12.273	N.3
  1276	2	 16.8893	  16.009	 13.0824	C.1
  1277	2	 16.9127	 16.5684	 12.3273	C.1
  1278	2	 15.2133	 15.6843	 12.7899	C.1
  1279	2	 15.2367	 16.2436	 12.0348	C.1
  1280	2	 16.4279	 14.6744	 12.0795	C.1
  1281	2	 16.4513	 15.2338	 11.3244	C.1
  1282	1	 4.43265	 -11.401	 15.3269	N.3
  1283	2	 3.97038	-12.2202	 15.9066	C.1
  1284	2	 4.90459	-12.2721	 15.8162	C.1
  1285	2	 4.05902	-10.4921	 15.8321	C.1
  1286	2	 4.99323	-10.5439	 15.7417	C.1
  1287	2	 3.86724	-11.4129	 14.3777	C.1
  1288	2	 4.80144	-11.4647	 14.2873	C.1
  1289	1	-8.98086	-3.83625	-2.84669	N.3
  1290	2	-8.94855	-3.36342	-3.84483	C.1
  1291	2	-8.92008	-4.30299	-3.84637	C.1
  1292	2	-9.88302	-3.39412	-2.38683	C.1
  1293	2	-9.85456	-4.33369	-2.38837	C.1
  1294	2	 -8.1537	-3.34186	 -2.3061	C.1
  1295	2	-8.12523	-4.28142	-2.30764	C.1
  1296	1	 18.0168	-7.51084	  6.6836	N.3
  1297	2	 18.3974	-7.17225	  7.6641	C.1
  1298	2	 18.8868	-7.86778	 7.26372	C.1
  1299	2	 17.9628	-6.57599	 6.09708	C.1
  1300	2	 18.4522	-7.27152	  5.6967	C.1
  1301	2	  16.956	-7.74098	 6.89018	C.1
  1302	2	 17.4455	-8.43651	 6.48979	C.1
  1303	1	-5.90029	-13.5735	 10.0395	N.3
  1304	2	 -6.4516	-12.6429	 9.81406	C.1
  1305	2	-5.52467	  -12.54	 9.93156	C.1
  1306	2	-6.19774	-14.2488	 9.21707	C.1
  1307	2	 -5.2708	 -14.146	 9.33457	C.1
  1308	2	-6.44194	-13.9832	 10.9111	C.1
  1309	2	  -5.515	-13.8803	 11.0286	C.1
  1310	1	 18.4835	-17.1713	-18.6635	N.3
  1311	2	 18.4878	-18.1853	-18.2244	C.1
  1312	2	 19.3297	-17.7713	-18.2829	C.1
  1313	2	 17.7371	 -16.634	-18.0512	C.1
  1314	2	 18.5791	  -16.22	-18.1097	C.1
  1315	2	 17.9628	-17.3157	-19.6273	C.1
  1316	2	 18.8047	-16.9018	-19.6858	C.1
  1317	1	 18.2878	 2.83584	-10.1902	N.3
  1318	2	 18.1334	 2.71797	-9.10248	C.1
  1319	2	 17.4607	 3.19615	-9.55233	C.1
  1320	2	 18.4393	 1.79799	-10.5378	C.1
  1321	2	 17.7665	 2.27617	-10.9876	C.1
  1322	2	 19.2999	 3.27429	-10.2556	C.1
  1323	2	 18.6272	 3.75247	-10.7055	C.1
  1324	1	 -4.7456	-18.8037	-16.3401	N.3
  1325	2	-5.35459	 -18.818	-15.4182	C.1
  1326	2	-4.87588	-19.6078	-15.5935	C.1
  1327	2	-4.12709	 -17.896	-16.2202	C.1
  1328	2	-3.64838	-18.6858	-16.3954	C.1
  1329	2	-5.47318	-18.5125	 -17.119	C.1
  1330	2	-4.99447	-19.3023	-17.2943	C.1
  1331	1	 15.3621	 18.1963	-1.86427	N.3
  1332	2	 15.3903	 18.1764	-2.96867	C.1
  1333	2	 15.3528	 17.3334	-2.55438	C.1
  1334	2	 14.5109	 18.8659	-1.64533	C.1
  1335	2	 14.4734	 18.0229	-1.23104	C.1
  1336	2	 16.2414	 18.8111	-1.60023	C.1
  1337	2	 16.2039	 17.9681	-1.18594	C.1
  1338	1	-8.44557	 18.3463	-12.4555	N.3
  1339	2	-8.55212	 19.4358	-12.6055	C.1
  1340	2	-7.66865	  19.115	-12.6179	C.1
  1341	2	-9.11174	 17.9189	-13.2265	C.1
  1342	2	-8.22827	  17.598	 -13.239	C.1
  1343	2	-8.99805	 18.1654	-11.5159	C.1
  1344	2	-8.11458	 17.8445	-11.5284	C.1
  1345	1	 14.6653	-3.77776	 18.0475	N.3
  1346	2	 15.7547	-3.86459	 18.2101	C.1
  1347	2	 15.2668	-4.65756	 18.3392	C.1
  1348	2	  14.595	 -3.3423	 17.0344	C.1
  1349	2	 14.1071	-4.13527	 17.1635	C.1
  1350	2	 14.3781	-2.93694	 18.7043	C.1
  1351	2	 13.8901	-3.72991	 18.8334	C.1
  1352	1	 6.06438	 4.87517	 -6.3007	N.3
  1353	2	 6.63454	 4.06608	-5.80959	C.1
  1354	2	 6.51655	 3.96618	-6.73679	C.1
  1355	2	 6.60413	  5.7883	-5.99128	C.1
  1356	2	 6.48614	  5.6884	-6.91848	C.1
  1357	2	 5.13146	 4.92099	-5.71043	C.1
  1358	2	 5.01347	 4.82109	-6.63763	C.1
  1359	1	 15.2223	 3.61045	 -11.876	N.3
  1360	2	 16.0574	 4.27692	-11.5943	C.1
  1361	2	 16.1601	 3.83283	-12.4163	C.1
  1362	2	 14.3382	 4.26939	 -11.805	C.1
  1363	2	 14.4409	  3.8253	-12.6271	C.1
  1364	2	 15.1172	 2.95116	-10.9955	C.1
  1365	2	 15.2199	 2.50707	-11.8176	C.1
  1366	1	-15.2793	-3.24986	 7.64026	N.3
  1367	2	-15.3028	-2.29912	 7.07774	C.1
  1368	2	-15.6931	-3.03309	 6.63892	C.1
  1369	2	-15.7396	-2.98199	 8.60839	C.1
  1370	2	-16.1298	-3.71596	 8.16957	C.1
  1371	2	-14.2101	-3.36751	 7.89289	C.1
  1372	2	-14.6004	-4.10149	 7.45408	C.1
  1373	1	  -5.066	-1.03311	-14.8563	N.3
  1374	2	-5.01902	-1.87689	-15.5682	C.1
  1375	2	-5.75216	 -1.2994	-15.6804	C.1
  1376	2	-4.07364	-0.558668	-14.9611	C.1
  1377	2	-4.80679	0.0188183	-15.0734	C.1
  1378	2	-5.00563	-1.52999	-13.8713	C.1
  1379	2	-5.73878	-0.952506	-13.9836	C.1
  1380	1	 9.02349	-18.6805	-16.4716	N.3
  1381	2	 9.77782	-17.8777	-16.5578	C.1
  1382	2	 10.0462	-18.7157	-16.8884	C.1
  1383	2	 8.13397	-18.2449	-16.9613	C.1
  1384	2	 8.40233	-19.0829	 -17.292	C.1
  1385	2	 8.75614	-18.6618	-15.3996	C.1
  1386	2	 9.02451	-19.4999	-15.7303	C.1
  1387	1	 2.88881	0.684348	-9.56771	N.3
  1388	2	 3.85329	0.932228	-9.08892	C.1
  1389	2	 3.16177	0.697425	-8.49709	C.1
  1390	2	 3.16394	-0.0943905	-10.3017	C.1
  1391	2	 2.47242	-0.329193	-9.70986	C.1
  1392	2	 2.68649	 1.56741	-10.2003	C.1
  1393	2	 1.99497	 1.33261	-9.60844	C.1
  1394	1	-4.75586	-13.2251	 13.0383	N.3
  1395	2	-4.15718	-13.5896	 12.1841	C.1
  1396	2	-4.84834	-12.9924	 11.9621	C.1
  1397	2	-3.99233	-12.8245	 13.7292	C.1
  1398	2	-4.68349	-12.2273	 13.5072	C.1
  1399	2	-5.08132	-14.1572	 13.5345	C.1
  1400	2	-5.77247	  -13.56	 13.3126	C.1
  1401	1	 13.6728	 7.17998	 19.9327	N.3
  1402	2	 14.0791	 6.16757	 20.1082	C.1
  1403	2	 13.4837	  6.2395	 19.3843	C.1
  1404	2	 14.5796	 7.80696	 19.8594	C.1
  1405	2	 13.9842	 7.87889	 19.1356	C.1
  1406	2	 13.2526	 7.45751	 20.9162	C.1
  1407	2	 12.6572	 7.52944	 20.1923	C.1
  1408	1	 7.18447	-9.19955	 19.5748	N.3
  1409	2	 6.28365	-8.62764	 19.2878	C.1
  1410	2	 6.23359	 -9.0613	 20.1203	C.1
  1411	2	 7.99641	-8.45615	 19.4802	C.1
  1412	2	 7.94635	-8.88981	 20.3126	C.1
  1413	2	 7.34844	-9.86438	 18.7076	C.1
  1414	2	 7.29838	 -10.298	 19.5401	C.1
  1415	1	-18.7183	 4.35828	 15.6745	N.3
  1416	2	-19.8215	 4.33095	 15.6203	C.1
  1417	2	-19.4647	 4.36684	 16.4892	C.1
  1418	2	-18.4543	 5.21035	 15.0225	C.1
  1419	2	-18.0975	 5.24624	 15.8914	C.1
  1420	2	-18.4142	 3.47969	 15.0775	C.1
  1421	2	-18.0574	 3.51558	 15.9464	C.1
  1422	1	-16.9376	 3.02168	 1.41119	N.3
  1423	2	-16.0305	 3.05871	 2.04101	C.1
  1424	2	-16.3474	 3.89337	 1.74687	C.1
  1425	2	-17.6478	 2.43911	 2.02522	C.1
  1426	2	-17.9647	 3.27378	 1.73109	C.1
  1427	2	-16.6591	 2.31523	0.608535	C.1
  1428	2	 -16.976	  3.1499	0.314403	C.1
  1429	1	 2.92752	-4.65614	 4.13929	N.3
  1430	2	 3.84328	-4.31011	  3.6269	C.1
  1431	2	  3.6142	-5.20867	 3.47289	C.1
  1432	2	 2.16819	-3.91716	 3.82593	C.1
  1433	2	 1.93911	-4.81572	 3.67192	C.1
  1434	2	 3.11471	-4.39331	 5.19605	C.1
  1435	2	 2.88563	-5.29186	 5.04204	C.1
  1436	1	 1.61256	 4.82608	 7.60599	N.3
  1437	2	 1.89836	 5.14723	 6.58811	C.1
  1438	2	  2.4069	  5.5232	 7.28355	C.1
  1439	2	 1.64659	 3.72355	 7.54188	C.1
  1440	2	 2.15512	 4.09952	 8.23733	C.1
  1441	2	0.529941	 5.04352	 7.64481	C.1
  1442	2	 1.03847	 5.41949	 8.34025	C.1
  1443	1	-16.7383	 2.37811	-12.2667	N.3
  1444	2	-16.8604	 3.47572	-12.3023	C.1
  1445	2	-16.6051	 3.12872	-11.4668	C.1
  1446	2	-16.0353	  2.1751	-13.0946	C.1
  1447	2	-15.7801	  1.8281	-12.2591	C.1
  1448	2	-17.7022	 2.00402	-12.6564	C.1
  1449	2	 -17.447	 1.65703	-11.8209	C.1
  1450	1	-2.02589	-4.27578	-15.7474	N.3
  1451	2	 -1.1824	-4.20033	-15.0377	C.1
  1452	2	 -1.6578	  -3.402	-15.1801	C.1
  1453	2	-2.62298	-5.11247	-15.3421	C.1
  1454	2	-3.09838	-4.31415	-15.4845	C.1
  1455	2	-1.55919	-4.71202	 -16.649	C.1
  1456	2	-2.03459	 -3.9137	-16.7913	C.1
  1457	1	 10.0135	 9.56839	   19.66	N.3
  1458	2	 8.91195	 9.48769	 19.6296	C.1
  1459	2	 9.27175	 10.2244	 19.1698	C.1
  1460	2	 10.3493	  8.5795	 19.2992	C.1
  1461	2	 10.7091	  9.3162	 18.8394	C.1
  1462	2	 10.2396	 9.53294	  20.741	C.1
  1463	2	 10.5994	 10.2696	 20.2812	C.1
  1464	1	-17.6089	 -6.0807	 19.6221	N.3
  1465	2	-17.3947	-7.10962	 19.9632	C.1
  1466	2	-17.2835	-6.44114	 20.6147	C.1
  1467	2	-18.6269	-6.16122	 19.2002	C.1
  1468	2	-18.5158	-5.49275	 19.8517	C.1
  1469	2	-16.9717	-5.97396	 18.7258	C.1
  1470	2	-16.8606	-5.30548	 19.3772	C.1
  1471	1	-4.73262	 -7.1908	-1.07607	N.3
  1472	2	-5.19804	-6.24252	-1.40018	C.1
  1473	2	  -4.271	-6.20208	-1.24996	C.1
  1474	2	-5.05187	-7.90767	-1.85391	C.1
  1475	2	-4.12483	-7.86723	-1.70369	C.1
  1476	2	 -5.3385	-7.48288	-0.199457	C.1
  1477	2	-4.41146	-7.44244	-0.0492336	C.1
  1478	1	-10.2678	0.0328433	 18.4629	N.3
  1479	2	-9.28203	0.375402	 18.8261	C.1
  1480	2	-9.61128	-0.403029	 19.2375	C.1
  1481	2	-10.1234	-0.0383667	 17.3698	C.1
  1482	2	-10.4527	-0.816798	 17.7812	C.1
  1483	2	 -10.904	0.929142	 18.5758	C.1
  1484	2	-11.2332	 0.15071	 18.9872	C.1
  1485	1	 8.73025	-2.30113	 16.2986	N.3
  1486	2	  8.1133	-2.80064	 17.0672	C.1
  1487	2	 8.93722	-3.21468	 16.8847	C.1
  1488	2	 8.79796	-1.26117	 16.6657	C.1
  1489	2	 9.62189	-1.67521	 16.4831	C.1
  1490	2	 8.04361	-2.22052	 15.4367	C.1
  1491	2	 8.86754	-2.63456	 15.2541	C.1
  1492	1	0.994633	-4.72329	 7.51194	N.3
  1493	2	 2.05055	-4.74893	 7.83639	C.1
  1494	2	 1.41881	-4.73001	  8.5322	C.1
  1495	2	0.918387	-5.59038	 6.83134	C.1
  1496	2	0.286642	-5.57145	 7.52715	C.1
  1497	2	0.962576	-3.85895	 6.82437	C.1
  1498	2	0.330831	-3.84003	 7.52017	C.1
  1499	1	 19.6651	-12.0142	 5.20518	N.3
  1500	2	 20.2095	-12.5887	 4.43424	C.1
  1501	2	 19.4212	-12.9914	 4.75058	C.1
  1502	2	 19.5306	-11.0238	 4.73419	C.1
  1503	2	 18.7423	-11.4264	 5.05053	C.1
  1504	2	 20.4374	-11.8262	 5.97261	C.1
  1505	2	 19.6491	-12.2288	 6.28895	C.1
  1506	1	 5.88306	 5.32697	 9.43379	N.3
  1507	2	 5.57463	 4.27131	 9.32727	C.1
  1508	2	 6.46865	 4.45158	 9.09962	C.1
  1509	2	 5.60584	 5.56718	 10.4761	C.1
  1510	2	 6.49987	 5.74744	 10.2484	C.1
  1511	2	 5.12767	 5.87202	 8.83952	C.1
  1512	2	 6.02169	 6.05229	 8.61187	C.1
  1513	1	 -11.744	 16.8493	 13.0478	N.3
  1514	2	-12.6893	 16.7088	 12.4933	C.1
  1515	2	-12.4739	 17.6008	 12.6969	C.1
  1516	2	-11.0034	 16.3177	 12.4234	C.1
  1517	2	-10.7881	 17.2098	  12.627	C.1
  1518	2	-11.8622	 16.1832	 13.9215	C.1
  1519	2	-11.6469	 17.0753	  14.125	C.1
  1520	1	-10.5767	-0.00362716	 13.5555	N.3
  1521	2	-11.4198	-0.700084	 13.7136	C.1
  1522	2	-10.5877	 -1.0011	 14.0307	C.1
  1523	2	-10.9389	0.937881	 14.0063	C.1
  1524	2	-10.1068	0.636863	 14.3235	C.1
  1525	2	-10.6196	0.202847	 12.4709	C.1
  1526	2	-9.78747	-0.0981699	  12.788	C.1
  1527	1	-1.45506	 2.54108	-14.3556	N.3
  1528	2	-1.63621	 3.14167	-15.2652	C.1
  1529	2	-2.33015	 2.55279	-15.0302	C.1
  1530	2	-1.20744	  3.3032	-13.5949	C.1
  1531	2	-1.90138	 2.71432	-13.3598	C.1
  1532	2	-0.480627	 2.06169	-14.5594	C.1
  1533	2	-1.17457	 1.47281	-14.3243	C.1
  1534	1	-5.50155	 1.24143	-15.9009	N.3
  1535	2	-5.44249	 2.32685	-15.7027	C.1
  1536	2	-5.49076	 1.78277	-14.9377	C.1
  1537	2	-4.63054	 1.05634	-16.5551	C.1
  1538	2	-4.67881	0.512261	-15.7901	C.1
  1539	2	 -6.3592	 1.15721	-16.5924	C.1
  1540	2	-6.40747	0.613131	-15.8274	C.1
  1541	1	 17.9592	 6.37562	 2.88452	N.3
  1542	2	 18.4944	 6.02823	  3.7866	C.1
  1543	2	 18.9115	 6.72908	 3.31926	C.1
  1544	2	 16.9458	 6.60078	 3.26306	C.1
  1545	2	  17.363	 7.30163	 2.79571	C.1
  1546	2	 17.8116	 5.44657	  2.3049	C.1
  1547	2	 18.2287	 6.14742	 1.83756	C.1
  1548	1	 8.91395	-3.37462	-19.7032	N.3
  1549	2	 8.96736	-4.32175	-19.1366	C.1
  1550	2	 8.14736	 -4.1585	-19.5662	C.1
  1551	2	 9.79187	-3.43037	-20.3717	C.1
  1552	2	 8.97187	-3.26713	-20.8013	C.1
  1553	2	 9.21262	-2.61662	-18.9568	C.1
  1554	2	 8.39262	-2.45337	-19.3864	C.1
  1555	1	-9.62638	 7.94333	 16.8549	N.3
  1556	2	-10.6048	 8.43137	 16.6953	C.1
  1557	2	-10.0963	 8.29096	 15.9172	C.1
  1558	2	-9.88899	 7.02855	 17.4162	C.1
  1559	2	-9.38056	 6.88813	 16.6381	C.1
  1560	2	-9.14804	  8.5807	 17.6203	C.1
  1561	2	 -8.6396	 8.44028	 16.8422	C.1
  1562	1	 8.73198	 13.4646	-15.4231	N.3
  1563	2	 7.85477	 13.3774	-14.7569	C.1
  1564	2	 7.95752	 14.2128	-15.1755	C.1
  1565	2	 8.61443	 12.6063	-16.1091	C.1
  1566	2	 8.71718	 13.4417	-16.5277	C.1
  1567	2	 9.57261	 13.1569	-14.7754	C.1
  1568	2	 9.67536	 13.9922	 -15.194	C.1
  1569	1	-12.4404	-14.3102	 9.93696	N.3
  1570	2	-12.4716	-15.2157	 10.5694	C.1
  1571	2	-13.2554	-15.0424	 10.0803	C.1
  1572	2	  -11.53	-14.4581	 9.32868	C.1
  1573	2	-12.3138	-14.2848	 8.83961	C.1
  1574	2	 -12.144	-13.5167	 10.6464	C.1
  1575	2	-12.9278	-13.3434	 10.1574	C.1
  1576	1	 16.7352	-0.509803	 13.1159	N.3
  1577	2	 17.6113	-0.0452564	 12.6284	C.1
  1578	2	 16.9415	0.554583	 12.9028	C.1
  1579	2	 17.1862	-1.11265	 13.9246	C.1
  1580	2	 16.5165	-0.512812	 14.1989	C.1
  1581	2	 16.4126	-1.27126	 12.3831	C.1
  1582	2	 15.7429	-0.671419	 12.6574	C.1
  1583	1	-11.5849	 7.80306	 13.7349	N.3
  1584	2	-11.3348	 8.68136	 13.1128	C.1
  1585	2	-12.0339	 8.14517	 12.7851	C.1
  1586	2	-11.7581	 8.24217	 14.7339	C.1
  1587	2	-12.4571	 7.70598	 14.4061	C.1
  1588	2	-10.6131	 7.28993	 13.8497	C.1
  1589	2	-11.3121	 6.75374	 13.5219	C.1
  1590	1	 -6.1143	-18.8733	0.815471	N.3
  1591	2	-6.55648	-18.1209	 1.49321	C.1
  1592	2	 -7.1758	-18.6619	 1.03787	C.1
  1593	2	-5.40654	-19.4159	 1.46778	C.1
  1594	2	-6.02586	-19.9569	 1.01244	C.1
  1595	2	-5.45091	-18.2715	0.168439	C.1
  1596	2	-6.07024	-18.8125	-0.286902	C.1
  1597	1	 16.1048	 2.18274	 19.3877	N.3
  1598	2	 15.8348	 1.59267	 18.4933	C.1
  1599	2	 15.1196	 2.03996	 18.9081	C.1
  1600	2	 16.9192	 2.83473	 19.0237	C.1
  1601	2	  16.204	 3.28202	 19.4385	C.1
  1602	2	 16.6331	 1.44988	 20.0238	C.1
  1603	2	 15.9179	 1.89717	 20.4386	C.1
  1604	1	 15.5528	 8.47242	 6.74017	N.3
  1605	2	 16.3085	 8.52549	 7.54449	C.1
  1606	2	 15.4199	 8.43153	 7.83633	C.1
  1607	2	 15.9253	 7.65471	 6.09715	C.1
  1608	2	 15.0367	 7.56075	 6.38899	C.1
  1609	2	 15.7575	   9.378	  6.1411	C.1
  1610	2	 14.8689	 9.28404	 6.43294	C.1
  1611	1	 15.4992	-8.44416	 14.2976	N.3
  1612	2	 15.4435	-8.08078	 15.3396	C.1
  1613	2	 15.6565	-7.42677	 14.6989	C.1
  1614	2	 14.5249	-8.94473	 14.1523	C.1
  1615	2	 14.7379	-8.29071	 13.5116	C.1
  1616	2	 16.2095	  -9.288	  14.362	C.1
  1617	2	 16.4226	-8.63399	 13.7213	C.1
  1618	1	-0.981338	 14.9084	 19.0931	N.3
  1619	2	0.0239451	 15.3031	 19.3266	C.1
  1620	2	-0.338312	 15.5906	 18.5083	C.1
  1621	2	 -1.5717	 15.1754	 19.9881	C.1
  1622	2	-1.93396	 15.4629	 19.1698	C.1
  1623	2	-0.852868	 13.8155	 19.1921	C.1
  1624	2	-1.21512	  14.103	 18.3737	C.1
  1625	1	-7.80777	 13.2561	-14.9998	N.3
  1626	2	-7.38344	 12.2519	-14.8197	C.1
  1627	2	-8.31964	 12.2821	-14.8986	C.1
  1628	2	-7.24981	 13.6111	-15.8849	C.1
  1629	2	-8.18601	 13.6413	-15.9638	C.1
  1630	2	-7.38576	 13.8601	-14.1763	C.1
  1631	2	-8.32196	 13.8903	-14.2552	C.1
  1632	1	 17.4542	0.819408	 19.1116	N.3
  1633	2	 17.8067	 1.61089	 18.4259	C.1
  1634	2	 16.9582	 1.25836	 18.2272	C.1
  1635	2	 17.5467	 1.28858	 20.1077	C.1
  1636	2	 16.6983	 0.93605	  19.909	C.1
  1637	2	 18.2819	0.0875498	 19.0994	C.1
  1638	2	 17.4335	-0.264984	 18.9006	C.1
  1639	1	 14.4997	 1.13786	 -8.8492	N.3
  1640	2	  14.117	0.199123	-8.40964	C.1
  1641	2	 14.4395	0.126255	-9.28958	C.1
  1642	2	 15.2397	 1.48224	-8.10444	C.1
  1643	2	 15.5622	 1.40937	-8.98438	C.1
  1644	2	 13.6587	 1.84152	-8.71362	C.1
  1645	2	 13.9812	 1.76866	-9.59356	C.1
  1646	1	-12.9638	 13.6345	 -2.9137	N.3
  1647	2	-12.3247	 14.1081	-3.68065	C.1
  1648	2	-12.6931	 14.6974	-3.04773	C.1
  1649	2	-12.3145	 12.8434	-2.49722	C.1
  1650	2	-12.6829	 13.4327	-1.86429	C.1
  1651	2	-13.6995	 13.0681	 -3.5126	C.1
  1652	2	 -14.068	 13.6574	-2.87968	C.1
  1653	1	 13.3633	 17.6614	 3.78214	N.3
  1654	2	 14.0787	   16.84	 3.59666	C.1
  1655	2	 14.3887	 17.5188	 4.16832	C.1
  1656	2	 12.4565	 17.1333	 4.12806	C.1
  1657	2	 12.7665	 17.8121	 4.69973	C.1
  1658	2	 13.0897	 17.9928	  2.7642	C.1
  1659	2	 13.3997	 18.6716	 3.33587	C.1
  1660	1	 14.0453	-6.98411	-17.4891	N.3
  1661	2	 13.8504	-7.45694	-18.4686	C.1
  1662	2	 13.8392	  -6.517	 -18.469	C.1
  1663	2	 14.9995	-7.44263	-17.1726	C.1
  1664	2	 14.9883	-6.50269	-17.1731	C.1
  1665	2	 13.3027	-7.46267	-16.8254	C.1
  1666	2	 13.2915	-6.52273	-16.8259	C.1
  1667	1	 6.40013	-1.80781	-12.4977	N.3
  1668	2	  6.6853	 -1.3506	-11.5331	C.1
  1669	2	 5.76411	-1.34766	-11.7201	C.1
  1670	2	 6.86703	-2.80814	-12.4509	C.1
  1671	2	 5.94584	 -2.8052	 -12.638	C.1
  1672	2	 7.02985	-1.26909	-13.2285	C.1
  1673	2	 6.10866	-1.26615	-13.4156	C.1
  1674	1	 6.63791	-1.15071	-19.7675	N.3
  1675	2	 5.86113	-1.46633	-20.4871	C.1
  1676	2	 6.51873	-0.891755	 -20.835	C.1
  1677	2	  7.0152	-2.10878	-19.3667	C.1
  1678	2	  7.6728	 -1.5342	-19.7146	C.1
  1679	2	   6.051	-0.738887	-18.9268	C.1
  1680	2	  6.7086	-0.164311	-19.2746	C.1
  1681	1	-17.9488	-4.16887	 19.0964	N.3
  1682	2	-17.4251	-4.94385	 19.6847	C.1
  1683	2	-17.0841	-4.07282	 19.7776	C.1
  1684	2	-19.0048	-4.29464	 19.3964	C.1
  1685	2	-18.6638	-3.42362	 19.4892	C.1
  1686	2	-17.9281	-4.57467	 18.0689	C.1
  1687	2	 -17.587	-3.70365	 18.1618	C.1
  1688	1	 2.50449	  12.399	 3.29578	N.3
  1689	2	 2.87433	 13.2358	  3.9154	C.1
  1690	2	 1.94601	 13.0923	  3.9503	C.1
  1691	2	 3.12464	 11.5464	 3.62653	C.1
  1692	2	 2.19632	 11.4029	 3.66143	C.1
  1693	2	 2.90698	 12.6301	 2.29305	C.1
  1694	2	 1.97866	 12.4866	 2.32795	C.1
  1695	1	 11.5696	 16.7182	-4.04898	N.3
  1696	2	 11.4461	  17.295	-4.98334	C.1
  1697	2	 10.7019	 16.7793	 -4.7304	C.1
  1698	2	   11.88	 17.4859	-3.31745	C.1
  1699	2	 11.1358	 16.9703	-3.06451	C.1
  1700	2	 12.4989	 16.1472	-4.22556	C.1
  1701	2	 11.7547	 15.6316	-3.97261	C.1
  1702	1	 2.35649	-2.12719	 6.64134	N.3
  1703	2	 2.18167	-1.11646	 7.05215	C.1
  1704	2	 2.34599	-1.78521	 7.69197	C.1
  1705	2	 3.16954	-1.96576	 5.91076	C.1
  1706	2	 3.33386	-2.63451	 6.55059	C.1
  1707	2	 1.47178	-2.29623	 6.00137	C.1
  1708	2	 1.63609	-2.96498	 6.64119	C.1
  1709	1	-1.48016	-0.316859	 11.0651	N.3
  1710	2	-0.524728	-0.0916528	 10.5578	C.1
  1711	2	-0.591828	0.221736	 11.4415	C.1
  1712	2	-1.57775	-1.41097	 10.9457	C.1
  1713	2	-1.64485	-1.09759	 11.8294	C.1
  1714	2	-2.23736	0.0819664	 10.3662	C.1
  1715	2	-2.30446	0.395356	 11.2499	C.1
  1716	1	-17.0238	-10.0512	-16.4388	N.3
  1717	2	-15.9702	-10.1102	-16.7663	C.1
  1718	2	-16.5737	-10.6303	-17.2651	C.1
  1719	2	-17.2278	-8.96524	-16.4385	C.1
  1720	2	-17.8313	-9.48536	-16.9374	C.1
  1721	2	-16.9682	-10.2979	-15.3632	C.1
  1722	2	-17.5717	 -10.818	 -15.862	C.1
  1723	1	 6.84734	 18.1563	  11.502	N.3
  1724	2	 7.70656	 18.0448	 12.1877	C.1
  1725	2	 6.86099	 18.0043	 12.5963	C.1
  1726	2	 7.03558	 17.3848	 10.7337	C.1
  1727	2	 6.19001	 17.3442	 11.1424	C.1
  1728	2	 7.06824	    19.1	 10.9716	C.1
  1729	2	 6.22267	 19.0595	 11.3802	C.1
  1730	1	-19.8769	-12.9392	-3.68371	N.3
  1731	2	-19.2101	-13.6422	-3.15268	C.1
  1732	2	-19.8462	-14.0432	-3.71668	C.1
  1733	2	-19.1717	-12.2516	-4.18459	C.1
  1734	2	-19.8079	-12.6526	 -4.7486	C.1
  1735	2	-20.2947	-12.3222	-2.86784	C.1
  1736	2	-20.9308	-12.7232	-3.43185	C.1
  1737	1	 3.38393	-11.2503	 11.9382	N.3
  1738	2	 4.22884	-11.6772	 12.5081	C.1
  1739	2	 4.45481	-11.3104	 11.6727	C.1
  1740	2	 2.92793	 -10.543	 12.6541	C.1
  1741	2	 3.15391	-10.1762	 11.8187	C.1
  1742	2	 2.65605	 -12.081	 11.9054	C.1
  1743	2	 2.88203	-11.7142	   11.07	C.1
  1744	1	-19.0899	  14.094	  -9.923	N.3
  1745	2	 -19.011	 13.7245	-10.9614	C.1
  1746	2	-18.2656	 13.5482	-10.4165	C.1
  1747	2	-20.0425	 13.6582	-9.57157	C.1
  1748	2	-19.2971	 13.4819	-9.02671	C.1
  1749	2	-19.3343	 15.1636	-10.0534	C.1
  1750	2	-18.5889	 14.9873	-9.50851	C.1
  1751	1	 15.1834	-2.28581	  3.2093	N.3
  1752	2	 15.2584	-3.24473	 2.66548	C.1
  1753	2	 14.7127	 -2.5962	 2.25903	C.1
  1754	2	 16.2391	-1.99124	 3.34878	C.1
  1755	2	 15.6934	-1.34271	 2.94233	C.1
  1756	2	 14.8711	-2.59426	 4.22332	C.1
  1757	2	 14.3254	-1.94573	 3.81687	C.1
  1758	1	  7.5952	-4.33186	-2.26133	N.3
  1759	2	 8.38031	-3.62755	-1.93201	C.1
  1760	2	 7.59541	-3.62172	-1.41481	C.1
  1761	2	 8.12515	-5.30061	-2.30038	C.1
  1762	2	 7.34025	-5.29478	-1.78318	C.1
  1763	2	  7.4575	-4.07616	-3.32741	C.1
  1764	2	  6.6726	-4.07033	 -2.8102	C.1
  1765	1	 11.1368	 16.9848	-15.7276	N.3
  1766	2	 10.5117	 17.6032	-15.0585	C.1
  1767	2	 10.0713	 17.2639	-15.8165	C.1
  1768	2	 11.5569	 16.2221	-15.0475	C.1
  1769	2	 11.1166	 15.8828	-15.8055	C.1
  1770	2	 12.0022	 17.6381	-15.9399	C.1
  1771	2	 11.5619	 17.2988	 -16.698	C.1
  1772	1	 12.2154	-19.6196	 11.8585	N.3
  1773	2	 11.4136	-20.2486	 12.2855	C.1
  1774	2	 11.5323	-20.3282	 11.3564	C.1
  1775	2	  13.097	 -19.885	 12.4694	C.1
  1776	2	 13.2157	-19.9646	 11.5403	C.1
  1777	2	 11.9576	-18.6058	 12.2142	C.1
  1778	2	 12.0763	-18.6854	 11.2852	C.1
  1779	1	 16.0658	-17.2448	 2.74949	N.3
  1780	2	 16.6542	-18.0626	 2.29563	C.1
  1781	2	 15.7229	  -18.19	 2.29133	C.1
  1782	2	   16.42	-16.3486	 2.20893	C.1
  1783	2	 15.4887	-16.4761	 2.20463	C.1
  1784	2	 16.5201	-17.1321	 3.75035	C.1
  1785	2	 15.5888	-17.2596	 3.74605	C.1
  1786	1	 13.9486	-0.162546	 5.62264	N.3
  1787	2	 13.6034	 0.85674	 5.37197	C.1
  1788	2	 14.4988	0.795198	 5.65133	C.1
  1789	2	 13.6977	-0.743986	 4.71719	C.1
  1790	2	 14.5931	-0.805527	 4.99654	C.1
  1791	2	 13.2014	-0.50808	 6.35972	C.1
  1792	2	 14.0969	-0.569622	 6.63908	C.1
  1793	1	 10.8351	 8.91987	-14.8393	N.3
  1794	2	 9.77095	 8.96611	-15.1331	C.1
  1795	2	 10.3516	 8.62164	-15.7871	C.1
  1796	2	 10.8106	 8.35677	 -13.889	C.1
  1797	2	 11.3913	  8.0123	 -14.543	C.1
  1798	2	 11.0528	 9.95344	 -14.515	C.1
  1799	2	 11.6335	 9.60897	 -15.169	C.1
  1800	1	  5.3829	-9.80387	 1.24712	N.3
  1801	2	 6.11115	-8.97787	 1.33806	C.1
  1802	2	 5.29623	-8.84367	 1.78694	C.1
  1803	2	 5.96032	 -10.687	 1.57516	C.1
  1804	2	 5.14539	-10.5528	 2.02405	C.1
  1805	2	 5.29962	-9.94808	 0.15482	C.1
  1806	2	  4.4847	-9.81389	0.603702	C.1
  1807	1	 8.64801	 9.85411	 12.8536	N.3
  1808	2	 8.15057	 9.20052	 12.1145	C.1
  1809	2	  8.9265	 9.63321	 11.8074	C.1
  1810	2	 8.79434	  9.1873	 13.7224	C.1
  1811	2	 9.57027	 9.61999	 13.4153	C.1
  1812	2	 7.83524	 10.5255	 13.1846	C.1
  1813	2	 8.61117	 10.9582	 12.8775	C.1
  1814	1	-13.9876	-2.83155	 16.9001	N.3
  1815	2	-13.3271	-3.24258	 16.1154	C.1
  1816	2	 -13.109	-2.37642	 16.4083	C.1
  1817	2	-13.9662	-3.61155	 17.6824	C.1
  1818	2	-13.7481	-2.74538	 17.9753	C.1
  1819	2	-14.9967	-2.93976	 16.4631	C.1
  1820	2	-14.7786	 -2.0736	  16.756	C.1
  1821	1	 11.7177	-4.28563	 5.93705	N.3
  1822	2	 11.6333	-3.37968	 5.31014	C.1
  1823	2	 11.9917	 -4.1333	 4.87754	C.1
  1824	2	 10.6947	-4.41408	 6.33436	C.1
  1825	2	 11.0532	 -5.1677	 5.90175	C.1
  1826	2	 12.2873	-3.93271	 6.81556	C.1
  1827	2	 12.6458	-4.68633	 6.38296	C.1
  1828	1	-1.00706	 -9.5477	 2.20947	N.3
  1829	2	-0.372738	-10.3856	 2.55082	C.1
  1830	2	-0.957514	-10.5891	 1.84357	C.1
  1831	2	-0.275696	-8.74669	 1.99889	C.1
  1832	2	-0.860472	-8.95025	 1.29164	C.1
  1833	2	-1.49558	 -9.2055	 3.13958	C.1
  1834	2	-2.08036	-9.40906	 2.43234	C.1
  1835	1	-14.3398	-14.2815	 11.5369	N.3
  1836	2	 -13.643	 -15.067	 11.8809	C.1
  1837	2	-13.3772	-14.6089	 11.1044	C.1
  1838	2	-14.4708	-13.6496	 12.4337	C.1
  1839	2	 -14.205	-13.1915	 11.6571	C.1
  1840	2	-15.3043	-14.8152	 11.4609	C.1
  1841	2	-15.0385	-14.3571	 10.6843	C.1
  1842	1	-11.3324	  1.7321	-11.1804	N.3
  1843	2	-11.0067	0.738454	-10.8234	C.1
  1844	2	-11.9319	0.830099	-10.9617	C.1
  1845	2	-10.7048	 1.89735	-12.0747	C.1
  1846	2	-11.6301	   1.989	 -12.213	C.1
  1847	2	-10.8978	 2.42304	-10.4357	C.1
  1848	2	 -11.823	 2.51468	 -10.574	C.1
  1849	1	 4.35758	-0.430259	 11.5803	N.3
  1850	2	 3.74244	-0.31159	 10.6701	C.1
  1851	2	 3.65651	0.377675	 11.3035	C.1
  1852	2	 5.37681	-0.575556	 11.1791	C.1
  1853	2	 5.29088	0.113709	 11.8125	C.1
  1854	2	  4.0824	-1.43753	 11.9416	C.1
  1855	2	 3.99647	-0.748263	 12.5749	C.1
  1856	1	 1.38709	-16.6387	 10.2623	N.3
  1857	2	 1.36598	 -17.734	 10.4065	C.1
  1858	2	  1.0162	-17.4316	 9.58805	C.1
  1859	2	 2.44566	-16.3802	 10.4452	C.1
  1860	2	 2.09588	-16.0778	 9.62683	C.1
  1861	2	0.874291	-16.2555	 11.1629	C.1
  1862	2	0.524507	 -15.953	 10.3445	C.1
  1863	1	 5.17796	 2.66257	 5.21634	N.3
  1864	2	 4.28589	 2.24472	 4.71583	C.1
  1865	2	 4.13086	 3.01504	 5.23175	C.1
  1866	2	 5.89687	 2.78924	  4.3869	C.1
  1867	2	 5.74184	 3.55956	 4.90282	C.1
  1868	2	 5.58367	 1.79826	 5.77242	C.1
  1869	2	 5.42864	 2.56858	 6.28834	C.1
  1870	1	 17.6971	  -3.446	 2.59074	N.3
  1871	2	 17.4646	-3.61666	 3.65738	C.1
  1872	2	 18.3656	-3.74081	 3.41969	C.1
  1873	2	  17.297	-2.43315	 2.40392	C.1
  1874	2	 18.1979	-2.55729	 2.16623	C.1
  1875	2	 16.9783	-4.10199	 2.06745	C.1
  1876	2	 17.8792	-4.22613	 1.82976	C.1
  1877	1	 18.6442	 5.88766	-0.269747	N.3
  1878	2	  19.554	 5.66177	-0.854627	C.1
  1879	2	   18.78	 5.20259	-1.12598	C.1
  1880	2	 18.5789	 6.98952	-0.319758	C.1
  1881	2	 17.8049	 6.53034	-0.591113	C.1
  1882	2	 18.9608	 5.70046	0.772177	C.1
  1883	2	 18.1867	 5.24129	0.500822	C.1
  1884	1	-8.09068	-6.06699	-11.3758	N.3
  1885	2	-6.99598	-6.04894	-11.2268	C.1
  1886	2	-7.42305	-5.21462	-11.1553	C.1
  1887	2	-8.43106	-6.83251	-10.6554	C.1
  1888	2	-8.85813	-5.99818	-10.5839	C.1
  1889	2	-8.20441	  -6.571	-12.3525	C.1
  1890	2	-8.63148	-5.73668	 -12.281	C.1
  1891	1	-10.2503	-16.8473	  5.9876	N.3
  1892	2	-10.6518	-17.8332	 5.69142	C.1
  1893	2	-11.2795	-17.1336	  5.7054	C.1
  1894	2	-9.40053	-16.7026	 5.29631	C.1
  1895	2	-10.0282	 -16.003	 5.31029	C.1
  1896	2	-9.75692	-17.0555	 6.95411	C.1
  1897	2	-10.3846	-16.3559	 6.96808	C.1
  1898	1	-11.5069	-19.2448	-17.0532	N.3
  1899	2	-11.6546	-20.1892	-17.6076	C.1
  1900	2	-11.6133	-19.4154	-18.1397	C.1
  1901	2	-10.6058	-19.4466	-16.4464	C.1
  1902	2	-10.5645	-18.6728	-16.9785	C.1
  1903	2	-12.3221	-19.2595	-16.3075	C.1
  1904	2	-12.2808	-18.4857	-16.8397	C.1
  1905	1	-10.3532	 12.4358	 12.1077	N.3
  1906	2	-9.81227	 13.2961	 11.6737	C.1
  1907	2	 -10.147	 13.4308	 12.5417	C.1
  1908	2	-9.63082	 11.6059	 12.0061	C.1
  1909	2	-9.96557	 11.7407	 12.8741	C.1
  1910	2	-11.1143	 12.2034	 11.3412	C.1
  1911	2	-11.4491	 12.3381	 12.2092	C.1
  1912	1	 4.72643	 11.5711	 7.28748	N.3
  1913	2	 4.13568	 12.4677	 7.02696	C.1
  1914	2	 4.58056	 12.0589	 6.30686	C.1
  1915	2	 3.99514	 10.9307	 7.81281	C.1
  1916	2	 4.44002	 10.5218	 7.09271	C.1
  1917	2	 5.38114	  11.928	 8.10283	C.1
  1918	2	 5.82601	 11.5192	 7.38273	C.1
  1919	1	 3.12996	 8.86767	  14.857	N.3
  1920	2	 2.09751	 8.88928	  14.464	C.1
  1921	2	 2.35564	  9.6502	 14.9518	C.1
  1922	2	 3.73783	 8.65672	 13.9588	C.1
  1923	2	 3.99596	 9.41764	 14.4466	C.1
  1924	2	 3.16735	 7.91565	 15.4166	C.1
  1925	2	 3.42548	 8.67657	 15.9044	C.1
  1926	1	-4.26301	 15.2127	-13.3435	N.3
  1927	2	-4.59409	  14.411	 -14.028	C.1
  1928	2	-4.08853	  15.095	-14.4282	C.1
  1929	2	-3.74972	 14.6597	-12.5363	C.1
  1930	2	-3.24416	 15.3437	-12.9365	C.1
  1931	2	-5.20357	 15.5415	-12.8658	C.1
  1932	2	-4.69802	 16.2255	 -13.266	C.1
  1933	1	-1.92905	 19.9818	 5.28119	N.3
  1934	2	-2.36653	 19.0304	 4.92847	C.1
  1935	2	-2.76713	  19.394	 5.69719	C.1
  1936	2	-1.96547	 20.6248	 4.38336	C.1
  1937	2	-2.36607	 20.9884	 5.15208	C.1
  1938	2	-0.854258	 19.7448	 5.37867	C.1
  1939	2	-1.25485	 20.1084	 6.14738	C.1
  1940	1	 19.3204	 10.6216	 8.23402	N.3
  1941	2	 18.6076	   10.58	 7.39072	C.1
  1942	2	  19.456	  10.215	 7.21562	C.1
  1943	2	 18.7637	 10.1421	 9.05922	C.1
  1944	2	  19.612	 9.77716	 8.88412	C.1
  1945	2	 19.3173	 11.6903	 8.51476	C.1
  1946	2	 20.1657	 11.3253	 8.33966	C.1
  1947	1	 7.67321	-5.82386	-8.00024	N.3
  1948	2	 7.33487	-5.12293	-8.78455	C.1
  1949	2	 7.19336	-4.83346	 -7.9015	C.1
  1950	2	  8.7279	-6.01393	-8.26923	C.1
  1951	2	 8.58639	-5.72445	-7.38618	C.1
  1952	2	 7.16912	-6.76893	-8.27153	C.1
  1953	2	 7.02761	-6.47945	-7.38848	C.1
  1954	1	-0.997743	 16.6978	-17.4486	N.3
  1955	2	-0.469165	 15.7447	-17.6306	C.1
  1956	2	-1.11981	 15.9696	-18.2707	C.1
  1957	2	-0.174328	 17.4264	-17.3393	C.1
  1958	2	-0.824972	 17.6513	-17.9794	C.1
  1959	2	-1.37377	 16.5848	-16.4158	C.1
  1960	2	-2.02441	 16.8098	-17.0559	C.1
  1961	1	 3.01562	 14.9424	-7.47653	N.3
  1962	2	 3.29754	 13.9173	-7.77735	C.1
  1963	2	 2.43632	 14.0038	-7.41073	C.1
  1964	2	  3.1983	 15.5335	-8.39198	C.1
  1965	2	 2.33708	 15.6201	-8.02537	C.1
  1966	2	 3.84284	 15.2466	-6.81019	C.1
  1967	2	 2.98162	 15.3332	-6.44357	C.1
  1968	1	-1.35601	-19.1939	-16.9284	N.3
  1969	2	-0.257613	-19.3015	-16.9818	C.1
  1970	2	-0.712686	-19.4391	-17.7927	C.1
  1971	2	-1.49025	-18.1939	-16.4779	C.1
  1972	2	-1.94532	-18.3315	-17.2888	C.1
  1973	2	-1.63755	-19.8798	-16.1093	C.1
  1974	2	-2.09262	-20.0174	-16.9202	C.1
  1975	1	-13.1395	-0.463272	 14.3032	N.3
  1976	2	-12.3261	0.00336893	 13.7187	C.1
  1977	2	-12.9943	-0.417464	 13.2088	C.1
  1978	2	-13.4908	0.360926	 14.9498	C.1
  1979	2	 -14.159	-0.0599069	 14.4398	C.1
  1980	2	-12.5992	-1.12286	 15.0059	C.1
  1981	2	-13.2674	-1.54369	  14.496	C.1
  1982	1	0.858871	 16.9655	-2.97039	N.3
  1983	2	  0.6443	 16.8334	-4.04622	C.1
  1984	2	0.633448	 16.0437	-3.53642	C.1
  1985	2	0.129571	 17.7353	-2.66005	C.1
  1986	2	0.118718	 16.9456	-2.15025	C.1
  1987	2	 1.81902	 17.5123	-2.96961	C.1
  1988	2	 1.80817	 16.7226	-2.45981	C.1
  1989	1	 8.28488	-5.94843	 18.2192	N.3
  1990	2	 8.32625	-6.01168	 17.1168	C.1
  1991	2	 8.41342	-6.83174	 17.5679	C.1
  1992	2	 7.33969	-5.40748	 18.4058	C.1
  1993	2	 7.42686	-6.22754	 18.8569	C.1
  1994	2	 9.05793	-5.19602	 18.4582	C.1
  1995	2	 9.14511	-6.01609	 18.9093	C.1
  1996	1	-12.3602	 12.8548	  12.964	N.3
  1997	2	-11.3453	 13.0282	 13.3652	C.1
  1998	2	-11.4034	 12.9891	 12.4278	C.1
  1999	2	-12.9593	 13.6524	 13.4392	C.1
  2000	2	-13.0174	 13.6133	 12.5018	C.1
  2001	2	-12.6887	 11.9425	 13.4937	C.1
  2002	2	-12.7468	 11.9034	 12.5564	C.1
  2003	1	-13.0923	 5.97609	 2.86611	N.3
  2004	2	-12.7363	 5.82149	 1.83157	C.1
  2005	2	-13.5619	 6.26434	 1.90837	C.1
  2006	2	-12.2399	 6.48293	 3.35343	C.1
  2007	2	-13.0655	 6.92578	 3.43023	C.1
  2008	2	-13.0622	 4.95957	 3.29814	C.1
  2009	2	-13.8878	 5.40242	 3.37494	C.1
  2010	1	-16.6635	 2.92581	 11.4945	N.3
  2011	2	-17.6358	 3.37912	 11.2299	C.1
  2012	2	-16.8888	 3.93706	 11.1105	C.1
  2013	2	-16.6515	 1.99158	 10.9047	C.1
  2014	2	-15.9044	 2.54951	 10.7852	C.1
  2015	2	-16.8237	 2.56984	 12.5282	C.1
  2016	2	-16.0766	 3.12777	 12.4087	C.1
  2017	1	-11.7058	 16.2902	-6.78277	N.3
  2018	2	-11.3375	 15.5243	-6.07659	C.1
  2019	2	 -12.244	 15.4473	-6.31298	C.1
  2020	2	-10.9931	 16.2214	-7.62434	C.1
  2021	2	-11.8996	 16.1444	-7.86073	C.1
  2022	2	-11.4269	 17.2405	-6.29279	C.1
  2023	2	-12.3334	 17.1635	-6.52918	C.1
  2024	1	  19.536	-9.28453	 7.36627	N.3
  2025	2	 18.4921	-9.54876	 7.61413	C.1
  2026	2	 18.9393	-10.1628	  7.0604	C.1
  2027	2	 19.9975	-9.12229	 8.35698	C.1
  2028	2	 20.4447	-9.73631	 7.80326	C.1
  2029	2	 19.4475	 -8.2615	 6.95828	C.1
  2030	2	 19.8947	-8.87552	 6.40456	C.1
  2031	1	 8.54705	 15.2098	 5.92243	N.3
  2032	2	 9.06377	 15.6936	   5.074	C.1
  2033	2	 8.72345	 16.2822	 5.72311	C.1
  2034	2	 9.29332	 14.4834	  6.2917	C.1
  2035	2	 8.95299	  15.072	 6.94081	C.1
  2036	2	 7.79454	 14.5694	 5.42793	C.1
  2037	2	 7.45422	  15.158	 6.07703	C.1
  2038	1	 14.3082	 -1.2154	-1.94558	N.3
  2039	2	 13.8583	 -2.0432	-2.52285	C.1
  2040	2	 14.6682	-2.24968	 -2.0926	C.1
  2041	2	 13.4878	-0.899014	-1.27644	C.1
  2042	2	 14.2977	-1.10549	-0.846183	C.1
  2043	2	 14.3637	-0.394278	-2.68282	C.1
  2044	2	 15.1736	-0.600757	-2.25256	C.1
  2045	1	-18.6058	  6.8629	0.232304	N.3
  2046	2	 -18.694	 7.30546	-0.776299	C.1
  2047	2	-19.2625	 6.57587	-0.60873	C.1
  2048	2	 -18.745	 7.73069	0.901952	C.1
  2049	2	-19.3135	 7.00111	 1.06952	C.1
  2050	2	-17.5258	 6.64693	0.319907	C.1
  2051	2	-18.0943	 5.91735	0.487475	C.1
  2052	1	  4.1331	 4.54252	-10.5806	N.3
  2053	2	  3.3929	 5.35007	 -10.725	C.1
  2054	2	 3.32661	 4.88816	-9.90905	C.1
  2055	2	 5.09854	 5.05044	-10.7561	C.1
  2056	2	 5.03225	 4.58852	-9.94012	C.1
  2057	2	 4.00728	 3.91991	-11.4847	C.1
  2058	2	   3.941	 3.45799	-10.6687	C.1
  2059	1	 2.99041	 10.0265	 8.40401	N.3
  2060	2	 3.08332	 9.47167	 9.35504	C.1
  2061	2	 3.56466	 9.11064	 8.63284	C.1
  2062	2	  3.2684	 11.0582	 8.68528	C.1
  2063	2	 3.74975	 10.6972	 7.96308	C.1
  2064	2	 1.89748	 10.0911	 8.25502	C.1
  2065	2	 2.37883	 9.73008	 7.53282	C.1
  2066	1	 8.50209	-1.09962	 12.7808	N.3
  2067	2	 7.91073	-1.45296	 11.9169	C.1
  2068	2	 8.09302	-2.10414	 12.5699	C.1
  2069	2	 7.93023	-0.223925	 13.1372	C.1
  2070	2	 8.11252	-0.875102	 13.7901	C.1
  2071	2	 9.39187	-0.645209	  12.309	C.1
  2072	2	 9.57416	-1.29639	 12.9619	C.1
  2073	1	  7.6013	-2.99412	  -15.55	N.3
  2074	2	 8.32927	-2.95422	-14.7197	C.1
  2075	2	 8.38393	-2.24467	-15.3338	C.1
  2076	2	   6.631	-3.09254	-15.0307	C.1
  2077	2	 6.68566	-2.38299	-15.6448	C.1
  2078	2	 7.76163	-3.99991	-15.9784	C.1
  2079	2	  7.8163	-3.29036	-16.5925	C.1
  2080	1	-11.2889	 10.4831	-8.20493	N.3
  2081	2	-11.4492	 11.1462	-7.33575	C.1
  2082	2	-11.3049	 10.2411	-7.12693	C.1
  2083	2	-10.4646	 10.9767	-8.75061	C.1
  2084	2	-10.3203	 10.0717	 -8.5418	C.1
  2085	2	-12.1693	  10.684	-8.84166	C.1
  2086	2	 -12.025	  9.7789	-8.63285	C.1
  2087	1	-9.93952	 1.92946	 17.7679	N.3
  2088	2	-10.6632	 1.37544	 18.3927	C.1
  2089	2	-9.82805	0.958178	 18.2828	C.1
  2090	2	-9.90779	 2.92682	 18.2424	C.1
  2091	2	-9.07268	 2.50956	 18.1325	C.1
  2092	2	-10.5003	 2.11201	 16.8335	C.1
  2093	2	-9.66518	 1.69474	 16.7236	C.1
  2094	1	 11.6696	-16.8281	 12.9693	N.3
  2095	2	 12.6286	-16.5116	 12.5211	C.1
  2096	2	 12.4399	-16.1416	 13.3644	C.1
  2097	2	 11.7302	-17.9311	 12.9428	C.1
  2098	2	 11.5415	-17.5611	 13.7861	C.1
  2099	2	 10.9329	-16.5967	  12.179	C.1
  2100	2	 10.7441	-16.2268	 13.0222	C.1
  2101	1	 17.3244	-6.99041	-3.54638	N.3
  2102	2	 16.2871	-6.80574	-3.87901	C.1
  2103	2	 16.4915	-6.49498	-3.01573	C.1
  2104	2	 17.9319	 -6.5534	-4.35929	C.1
  2105	2	 18.1363	-6.24265	-3.49601	C.1
  2106	2	 17.4477	-8.07822	-3.69576	C.1
  2107	2	 17.6521	-7.76747	-2.83248	C.1
  2108	1	-2.92397	  17.395	 14.1858	N.3
  2109	2	-3.57114	 16.8344	 14.8842	C.1
  2110	2	-2.70066	 17.0051	 15.1952	C.1
  2111	2	 -3.5237	 18.2929	 13.9512	C.1
  2112	2	-2.65322	 18.4635	 14.2622	C.1
  2113	2	-2.98278	 16.8018	 13.2555	C.1
  2114	2	-2.11231	 16.9725	 13.5665	C.1
  2115	1	-13.4046	  10.226	 2.83829	N.3
  2116	2	  -13.18	 9.14888	 2.73718	C.1
  2117	2	-13.7981	 9.36687	 3.41095	C.1
  2118	2	-13.7016	 10.5192	 1.81522	C.1
  2119	2	-14.3198	 10.7372	 2.48899	C.1
  2120	2	 -12.405	  10.683	 2.95182	C.1
  2121	2	-13.0232	 10.9009	 3.62559	C.1
  2122	1	 19.6515	-17.1846	 16.7367	N.3
  2123	2	 19.7791	 -16.091	 16.8294	C.1
  2124	2	 19.7978	 -16.566	 17.6404	C.1
  2125	2	 20.4313	-17.4689	 16.0074	C.1
  2126	2	   20.45	-17.9439	 16.8183	C.1
  2127	2	  18.716	-17.2815	 16.1567	C.1
  2128	2	 18.7347	-17.7564	 16.9677	C.1
  2129	1	 10.1608	 15.5483	 13.3375	N.3
  2130	2	 9.60091	 15.9373	  12.468	C.1
  2131	2	 10.4781	 16.2633	 12.5571	C.1
  2132	2	  10.076	 14.4526	 13.2228	C.1
  2133	2	 10.9531	 14.7786	  13.312	C.1
  2134	2	 9.48975	 15.7659	 14.1879	C.1
  2135	2	 10.3669	 16.0919	 14.2771	C.1
  2136	1	  10.436	-0.386539	-14.0965	N.3
  2137	2	 10.6237	0.614945	-13.6691	C.1
  2138	2	 11.0711	-0.0925577	-13.2414	C.1
  2139	2	 10.6798	-0.254404	-15.1661	C.1
  2140	2	 11.1272	-0.961907	-14.7384	C.1
  2141	2	 9.33346	-0.458904	-14.0958	C.1
  2142	2	 9.78087	-1.16641	-13.6682	C.1
  2143	1	 14.1183	 1.88554	 17.0851	N.3
  2144	2	 13.7611	 1.29876	 17.9505	C.1
  2145	2	  14.668	 1.54412	 17.9807	C.1
  2146	2	 13.4048	 2.72793	 17.0392	C.1
  2147	2	 14.3117	 2.97329	 17.0694	C.1
  2148	2	 13.8287	 1.26187	 16.2202	C.1
  2149	2	 14.7356	 1.50723	 16.2504	C.1
  2150	1	 7.81141	 1.07061	-15.8575	N.3
  2151	2	 7.43417	0.131299	-16.3006	C.1
  2152	2	 7.55065	0.114972	-15.3679	C.1
  2153	2	 7.09895	 1.82908	 -16.229	C.1
  2154	2	 7.21544	 1.81275	-15.2964	C.1
  2155	2	 8.72637	 1.27593	-16.4419	C.1
  2156	2	 8.84286	  1.2596	-15.5093	C.1
  2157	1	-19.3566	 16.2924	 18.2881	N.3
  2158	2	-18.5046	  16.622	 17.6666	C.1
  2159	2	-18.4671	 16.8851	 18.5683	C.1
  2160	2	-19.3862	 15.2011	 18.1178	C.1
  2161	2	-19.3487	 15.4641	 19.0194	C.1
  2162	2	-20.2351	 16.6594	 17.7276	C.1
  2163	2	-20.1977	 16.9225	 18.6292	C.1
  2164	1	0.614621	-13.8689	-19.9069	N.3
  2165	2	 0.97606	-12.8251	-19.8805	C.1
  2166	2	0.482886	-13.0582	 -20.646	C.1
  2167	2	0.0732825	-13.9731	-18.9493	C.1
  2168	2	-0.419892	-14.2062	-19.7149	C.1
  2169	2	 1.53428	-14.4589	-19.7426	C.1
  2170	2	 1.04111	 -14.692	-20.5081	C.1
  2171	1	 8.06221	 19.6563	 17.2536	N.3
  2172	2	 7.64028	 20.0322	 18.2031	C.1
  2173	2	 8.34095	 19.4122	 18.2946	C.1
  2174	2	 8.32163	 20.5818	 16.7086	C.1
  2175	2	  9.0223	 19.9619	 16.8001	C.1
  2176	2	 7.17372	 19.2849	 16.7119	C.1
  2177	2	 7.87439	  18.665	 16.8033	C.1
  2178	1	 18.5228	 16.0843	 13.0145	N.3
  2179	2	  17.822	 16.5381	 12.2908	C.1
  2180	2	 18.6892	 16.9008	 12.2889	C.1
  2181	2	 18.4637	 15.0059	 12.7811	C.1
  2182	2	  19.331	 15.3685	 12.7792	C.1
  2183	2	 17.9817	 16.1648	 13.9745	C.1
  2184	2	 18.8489	 16.5275	 13.9726	C.1
  2185	1	 12.4069	-12.8891	 18.3436	N.3
  2186	2	 13.3765	-12.6384	 18.8105	C.1
  2187	2	 12.8255	-11.9028	 18.6134	C.1
  2188	2	 11.9735	-13.6272	 19.0424	C.1
  2189	2	 11.4225	-12.8915	 18.8454	C.1
  2190	2	 12.6973	-13.5052	 17.4736	C.1
  2191	2	 12.1463	-12.7696	 17.2766	C.1
  2192	1	 10.9311	-1.36879	-3.02075	N.3
  2193	2	 11.9212	-1.35282	-3.51095	C.1
  2194	2	 11.4725	-2.17818	-3.54294	C.1
  2195	2	 10.3993	-0.525931	-3.49793	C.1
  2196	2	 9.95062	-1.35129	-3.52992	C.1
  2197	2	 11.1458	-0.989585	-2.00538	C.1
  2198	2	  10.697	-1.81495	-2.03737	C.1
  2199	1	 14.9902	 7.91914	 3.61518	N.3
  2200	2	 13.9026	 8.07408	 3.49692	C.1
  2201	2	 14.3149	 7.58867	 2.80552	C.1
  2202	2	 15.0733	 7.46803	 4.62039	C.1
  2203	2	 15.4855	 6.98262	 3.92899	C.1
  2204	2	 15.3764	 8.94342	 3.76532	C.1
  2205	2	 15.7887	 8.45801	 3.07392	C.1
  2206	1	-4.05488	 17.8068	 3.93268	N.3
  2207	2	-3.41613	 17.2557	 3.21908	C.1
  2208	2	-4.24755	 16.8571	 3.40183	C.1
  2209	2	-4.10555	 18.8204	 3.49571	C.1
  2210	2	-4.93698	 18.4217	 3.67846	C.1
  2211	2	-3.39582	 17.9423	 4.80911	C.1
  2212	2	-4.22724	 17.5436	 4.99187	C.1
  2213	1	 3.77263	 7.63725	 4.67899	N.3
  2214	2	 4.51411	 7.12181	 5.31573	C.1
  2215	2	 4.81891	 7.35859	 4.45862	C.1
  2216	2	 3.44141	 8.48167	 5.30994	C.1
  2217	2	  3.7462	 8.71845	 4.45283	C.1
  2218	2	 2.90519	 6.95309	 4.69697	C.1
  2219	2	 3.20998	 7.18987	 3.83987	C.1
  2220	1	 13.1278	 15.3425	-12.4962	N.3
  2221	2	 13.5365	 15.8097	-13.4103	C.1
  2222	2	 14.0951	  15.173	-13.0027	C.1
  2223	2	 12.1438	 14.9625	 -12.825	C.1
  2224	2	 12.7024	 14.3258	-12.4174	C.1
  2225	2	 12.8653	 16.2103	-11.8647	C.1
  2226	2	 13.4239	 15.5736	-11.4571	C.1
  2227	1	-8.44782	 8.07203	 19.1721	N.3
  2228	2	-8.84038	 7.85702	 20.1823	C.1
  2229	2	-9.34316	  7.4989	 19.4734	C.1
  2230	2	-7.40073	 7.72381	 19.2286	C.1
  2231	2	-7.90351	 7.36569	 18.5197	C.1
  2232	2	-8.34819	 9.17245	 19.1688	C.1
  2233	2	-8.85097	 8.81433	 18.4598	C.1
  2234	1	 1.09552	 8.94479	-17.2482	N.3
  2235	2	0.987064	 9.95438	-16.8124	C.1
  2236	2	 1.64986	 9.41748	-16.4174	C.1
  2237	2	 1.23559	 9.14821	-18.3251	C.1
  2238	2	 1.89839	 8.61131	-17.9301	C.1
  2239	2	0.0697042	 8.53713	-17.1995	C.1
  2240	2	  0.7325	 8.00023	-16.8045	C.1
  2241	1	-8.30343	-12.1931	-11.1346	N.3
  2242	2	-8.07415	 -11.489	-11.9547	C.1
  2243	2	-7.35411	-11.6853	-11.3832	C.1
  2244	2	-8.73567	-13.0627	-11.6617	C.1
  2245	2	-8.01563	-13.2589	-11.0901	C.1
  2246	2	-9.18052	-11.7332	-10.6447	C.1
  2247	2	-8.46049	-11.9294	-10.0731	C.1
  2248	1	 1.21474	-10.5327	 15.3028	N.3
  2249	2	 1.69167	-11.0712	 16.1415	C.1
  2250	2	0.884008	-10.6386	 16.3518	C.1
  2251	2	 1.14351	-11.3043	 14.5152	C.1
  2252	2	0.335849	-10.8718	 14.7254	C.1
  2253	2	 2.02054	-9.87142	 14.9364	C.1
  2254	2	 1.21288	-9.43887	 15.1466	C.1
  2255	1	-19.0395	 3.52761	-12.6868	N.3
  2256	2	-19.7614	 2.95632	-12.0757	C.1
  2257	2	-18.9757	 2.49331	-12.3033	C.1
  2258	2	-18.8874	 4.45149	-12.1001	C.1
  2259	2	-18.1017	 3.98848	-12.3278	C.1
  2260	2	-19.6484	 3.86953	-13.5431	C.1
  2261	2	-18.8626	 3.40651	-13.7707	C.1
  2262	1	 6.82573	-3.18193	-6.64293	N.3
  2263	2	 7.54717	-2.97229	 -5.8327	C.1
  2264	2	 7.72237	-2.53623	 -6.6468	C.1
  2265	2	 5.85089	-2.94193	-6.18148	C.1
  2266	2	 6.02608	-2.50587	-6.99558	C.1
  2267	2	 6.81634	-4.28566	-6.69347	C.1
  2268	2	 6.99153	 -3.8496	-7.50756	C.1
  2269	1	 14.2848	-9.55748	 10.6305	N.3
  2270	2	 13.5219	-10.2601	 10.2494	C.1
  2271	2	 14.4079	-10.4636	 10.0102	C.1
  2272	2	 14.0852	-9.53268	 11.7169	C.1
  2273	2	 14.9712	-9.73619	 11.4778	C.1
  2274	2	 13.9184	-8.57441	 10.2839	C.1
  2275	2	 14.8044	-8.77791	 10.0447	C.1
  2276	1	 -9.1202	-1.14114	-0.514706	N.3
  2277	2	-9.34226	-0.0759805	-0.707119	C.1
  2278	2	-8.57055	-0.406287	-1.13016	C.1
  2279	2	-10.0616	-1.64933	-0.790932	C.1
  2280	2	-9.28992	-1.97964	-1.21397	C.1
  2281	2	-9.11427	-1.20265	0.588489	C.1
  2282	2	-8.34256	-1.53295	0.165452	C.1
  2283	1	 12.5534	-9.63817	-5.56796	N.3
  2284	2	 11.8959	-10.3385	-5.02189	C.1
  2285	2	 12.7607	-10.6599	-5.20196	C.1
  2286	2	 12.5114	-8.72095	 -4.9533	C.1
  2287	2	 13.3762	-9.04239	-5.13337	C.1
  2288	2	 11.9556	-9.37291	-6.45858	C.1
  2289	2	 12.8204	-9.69436	-6.63865	C.1
  2290	1	  19.161	-1.50654	 -1.1376	N.3
  2291	2	 18.0827	 -1.7427	-1.18592	C.1
  2292	2	 18.4944	-1.92097	-0.35991	C.1
  2293	2	 19.2037	-0.452497	-1.46627	C.1
  2294	2	 19.6155	-0.630768	-0.64026	C.1
  2295	2	  19.579	-2.05702	-1.99963	C.1
  2296	2	 19.9907	-2.23529	-1.17363	C.1
  2297	1	0.909147	 1.18538	 9.59444	N.3
  2298	2	 1.44728	 1.90846	 10.2336	C.1
  2299	2	0.929641	 2.28914	 9.54746	C.1
  2300	2	0.347119	0.573692	  10.323	C.1
  2301	2	-0.170523	0.954375	 9.63691	C.1
  2302	2	  1.7095	0.502981	 9.25589	C.1
  2303	2	 1.19186	0.883663	 8.56979	C.1
  2304	1	-11.4757	-0.522617	 4.05335	N.3
  2305	2	-12.3823	-1.05478	 3.71318	C.1
  2306	2	-12.4839	-0.127988	 3.83287	C.1
  2307	2	-10.7144	-0.819817	 3.30974	C.1
  2308	2	 -10.816	0.106979	 3.42943	C.1
  2309	2	-11.1779	-1.08344	 4.95761	C.1
  2310	2	-11.2795	-0.156649	 5.07729	C.1
  2311	1	-7.98433	-0.466265	 -10.191	N.3
  2312	2	-7.05084	-0.865836	-10.6267	C.1
  2313	2	-7.80182	-0.899171	-11.1911	C.1
  2314	2	-7.69347	0.545338	-9.85495	C.1
  2315	2	-8.44444	0.512003	-10.4193	C.1
  2316	2	-8.08222	-1.02829	-9.24473	C.1
  2317	2	-8.83319	-1.06163	-9.80911	C.1
  2318	1	 7.55685	 14.0551	 17.1573	N.3
  2319	2	  8.0031	 13.8749	 16.1627	C.1
  2320	2	  7.4483	 13.1868	 16.4826	C.1
  2321	2	 7.06621	 15.0381	 17.0396	C.1
  2322	2	 6.51141	 14.3501	 17.3596	C.1
  2323	2	 8.43343	 14.2844	 17.7896	C.1
  2324	2	 7.87863	 13.5964	 18.1096	C.1
  2325	1	-18.5805	-9.91227	-7.43659	N.3
  2326	2	-19.4648	-10.0483	-6.78822	C.1
  2327	2	-19.2517	-9.15568	-6.99158	C.1
  2328	2	-18.8059	-10.5521	-8.30877	C.1
  2329	2	-18.5928	-9.65942	-8.51212	C.1
  2330	2	-17.7905	-10.4754	-6.90774	C.1
  2331	2	-17.5774	-9.58273	-7.11109	C.1
  2332	1	 -8.3198	 17.7941	-17.2031	N.3
  2333	2	-7.96965	 16.9162	-17.7753	C.1
  2334	2	-7.51021	 17.7172	-17.9511	C.1
  2335	2	  -8.275	 17.4469	-16.1551	C.1
  2336	2	-7.81556	 18.2479	-16.3309	C.1
  2337	2	-9.40393	 17.8179	-17.4151	C.1
  2338	2	-8.94448	 18.6189	-17.5909	C.1
  2339	1	 6.45278	-12.5419	 5.80768	N.3
  2340	2	 7.14865	-13.3744	 5.59914	C.1
  2341	2	 6.64185	 -13.083	 4.86305	C.1
  2342	2	 7.10553	-11.7749	 6.26211	C.1
  2343	2	 6.59874	-11.4834	 5.52602	C.1
  2344	2	 5.86435	-12.9134	 6.66591	C.1
  2345	2	 5.35756	 -12.622	 5.92982	C.1
  2346	1	 18.1355	-16.3917	-14.8382	N.3
  2347	2	 17.2839	-15.6893	-14.7905	C.1
  2348	2	  17.505	-16.1054	-13.9772	C.1
  2349	2	 18.9402	-15.7831	-15.2886	C.1
  2350	2	 19.1612	-16.1992	-14.4753	C.1
  2351	2	 17.8508	-17.0787	-15.6555	C.1
  2352	2	 18.0719	-17.4948	-14.8421	C.1
  2353	1	 -5.3467	 19.4005	 2.09007	N.3
  2354	2	-5.65828	 18.6774	 2.86524	C.1
  2355	2	-4.72952	  18.789	 2.77272	C.1
  2356	2	-5.90553	 20.3151	 2.35858	C.1
  2357	2	-4.97678	 20.4267	 2.26607	C.1
  2358	2	-5.86941	 19.0417	 1.18516	C.1
  2359	2	-4.94065	 19.1533	 1.09264	C.1
  2360	1	 7.27274	-2.55178	 3.08767	N.3
  2361	2	 7.67602	-3.03554	 3.99555	C.1
  2362	2	 8.31828	-2.64134	 3.43367	C.1
  2363	2	  6.5101	 -1.8596	 3.48785	C.1
  2364	2	 7.15236	 -1.4654	 2.92597	C.1
  2365	2	 6.66869	-3.35149	 2.62244	C.1
  2366	2	 7.31095	-2.95729	 2.06056	C.1
  2367	1	-6.05173	 -13.578	 -17.853	N.3
  2368	2	-5.44517	-13.7048	-16.9382	C.1
  2369	2	-6.30026	 -14.094	-16.9081	C.1
  2370	2	-5.38914	-13.9601	-18.6504	C.1
  2371	2	-6.24423	-14.3494	-18.6203	C.1
  2372	2	-6.03825	-12.4852	-18.0156	C.1
  2373	2	-6.89334	-12.8744	-17.9855	C.1
  2374	1	 18.7741	-6.72661	 9.84723	N.3
  2375	2	 17.8365	-7.30799	 9.78451	C.1
  2376	2	 18.5755	-7.69266	 9.34905	C.1
  2377	2	 18.8996	-6.56622	 10.9332	C.1
  2378	2	 19.6386	 -6.9509	 10.4978	C.1
  2379	2	 18.4776	-5.72859	 9.47716	C.1
  2380	2	 19.2165	-6.11327	  9.0417	C.1
  2381	1	-3.42274	 8.98446	-8.02449	N.3
  2382	2	-3.61401	 8.59215	-9.03958	C.1
  2383	2	-3.81735	 8.00101	-8.33757	C.1
  2384	2	-3.98114	 9.93783	-8.01278	C.1
  2385	2	-4.18447	 9.34669	-7.31077	C.1
  2386	2	-2.36806	  9.3101	-8.07413	C.1
  2387	2	 -2.5714	 8.71897	-7.37212	C.1
  2388	1	 5.01822	 3.06101	-4.87266	N.3
  2389	2	 4.36512	 3.83539	-4.43141	C.1
  2390	2	 4.21074	 2.96018	-4.12518	C.1
  2391	2	  6.0348	 3.45172	-4.68622	C.1
  2392	2	 5.88042	 2.57651	-4.37998	C.1
  2393	2	  4.8863	 3.20872	-5.95969	C.1
  2394	2	 4.73192	 2.33352	-5.65346	C.1
  2395	1	-3.56321	-14.6725	-1.42574	N.3
  2396	2	-3.05191	-14.1847	-2.27514	C.1
  2397	2	-3.74486	-13.6838	 -1.8845	C.1
  2398	2	-2.73166	-14.9338	-0.746676	C.1
  2399	2	-3.42461	 -14.433	-0.35603	C.1
  2400	2	-3.86662	-15.6503	-1.84136	C.1
  2401	2	-4.55957	-15.1495	-1.45071	C.1
  2402	1	-12.1658	-19.4759	-5.81873	N.3
  2403	2	-11.4934	-20.0362	-6.49318	C.1
  2404	2	-11.5768	-20.3908	-5.62664	C.1
  2405	2	-13.1071	-19.4149	-6.39413	C.1
  2406	2	-13.1905	-19.7695	-5.52759	C.1
  2407	2	-11.7719	-18.4448	 -5.8687	C.1
  2408	2	-11.8553	-18.7994	-5.00216	C.1
  2409	1	 5.57557	-1.47347	 18.0076	N.3
  2410	2	  4.5124	-1.75789	 17.9092	C.1
  2411	2	 4.92249	-2.01619	 18.7146	C.1
  2412	2	 5.56512	-0.385831	 17.8132	C.1
  2413	2	 5.97521	-0.644135	 18.6186	C.1
  2414	2	 6.03404	-1.88923	 17.0923	C.1
  2415	2	 6.44413	-2.14754	 17.8977	C.1
  2416	1	 17.6494	-15.7487	 1.02684	N.3
  2417	2	 16.8578	-15.8299	 1.79343	C.1
  2418	2	  17.737	-15.8209	 2.12594	C.1
  2419	2	 17.3546	-14.8515	0.453352	C.1
  2420	2	 18.2338	-14.8424	0.785865	C.1
  2421	2	 17.4171	-16.5783	 0.33497	C.1
  2422	2	 18.2963	-16.5692	0.667483	C.1
  2423	1	-8.95236	 12.2209	 14.7943	N.3
  2424	2	-9.05526	 13.0221	 15.5482	C.1
  2425	2	-8.98275	 13.3171	 14.6587	C.1
  2426	2	-9.81679	 11.5651	 15.0031	C.1
  2427	2	-9.74427	 11.8601	 14.1135	C.1
  2428	2	-8.09381	  11.633	 15.1661	C.1
  2429	2	-8.02129	  11.928	 14.2765	C.1
  2430	1	-17.3382	-2.65538	-8.83727	N.3
  2431	2	-17.1449	-3.74324	-8.84718	C.1
  2432	2	 -16.398	-3.20616	-8.65426	C.1
  2433	2	-18.1835	-2.55544	-8.13277	C.1
  2434	2	-17.4366	-2.01835	-7.93985	C.1
  2435	2	-17.8066	 -2.4731	-9.82126	C.1
  2436	2	-17.0597	-1.93601	-9.62834	C.1
  2437	1	0.273038	 14.1142	-6.02143	N.3
  2438	2	0.216698	 14.2901	-7.11083	C.1
  2439	2	0.964678	  14.666	-6.68329	C.1
  2440	2	  0.1868	 13.0158	-5.93808	C.1
  2441	2	 0.93478	 13.3918	-5.51053	C.1
  2442	2	-0.706353	 14.4729	-5.65669	C.1
  2443	2	0.0416272	 14.8488	-5.22915	C.1
  2444	1	 7.52183	 15.2408	-2.20763	N.3
  2445	2	  6.8988	 14.5969	-1.56093	C.1
  2446	2	 7.82328	 14.4326	-1.51703	C.1
  2447	2	 7.21185	 16.2619	-1.92123	C.1
  2448	2	 8.13633	 16.0976	-1.87733	C.1
  2449	2	 7.06812	 15.1099	-3.20657	C.1
  2450	2	  7.9926	 14.9456	-3.16267	C.1
  2451	1	 15.8422	-4.66187	  15.929	N.3
  2452	2	 15.3891	  -4.837	 16.9214	C.1
  2453	2	 15.4993	-5.60519	  16.391	C.1
  2454	2	 16.7741	-4.11886	 16.1691	C.1
  2455	2	 16.8843	-4.88705	 15.6387	C.1
  2456	2	 15.1982	-3.87748	 15.4921	C.1
  2457	2	 15.3084	-4.64567	 14.9617	C.1
  2458	1	-18.0627	 -13.661	 15.6097	N.3
  2459	2	-17.5631	-14.4621	 16.1837	C.1
  2460	2	  -18.06	-14.7529	 15.4407	C.1
  2461	2	-17.2376	-12.9631	 15.3794	C.1
  2462	2	-17.7346	-13.2538	 14.6364	C.1
  2463	2	 -18.642	-13.1216	 16.3807	C.1
  2464	2	-19.1389	-13.4123	 15.6376	C.1
  2465	1	 -19.406	 12.5275	-15.8247	N.3
  2466	2	-19.3401	 12.3666	-14.7335	C.1
  2467	2	-19.8849	 11.7556	-15.1956	C.1
  2468	2	-18.3476	 12.5466	-16.1415	C.1
  2469	2	-18.8924	 11.9357	-16.6037	C.1
  2470	2	 -19.713	 13.5858	-15.9058	C.1
  2471	2	-20.2578	 12.9749	-16.3679	C.1
  2472	1	-9.90761	 11.7398	 19.2784	N.3
  2473	2	-8.87012	 11.5094	  18.976	C.1
  2474	2	-9.01967	 12.3967	 19.2479	C.1
  2475	2	-10.1247	 10.9713	 20.0421	C.1
  2476	2	-10.2742	 11.8587	 20.3139	C.1
  2477	2	-10.5037	 11.4077	 18.4093	C.1
  2478	2	-10.6532	  12.295	 18.6812	C.1
  2479	1	-7.00687	-11.0867	-16.3063	N.3
  2480	2	-7.17162	-10.7259	 -15.275	C.1
  2481	2	-6.52906	-11.4064	-15.3627	C.1
  2482	2	-6.78905	-10.1595	-16.8664	C.1
  2483	2	-6.14649	  -10.84	-16.9542	C.1
  2484	2	-8.02379	-11.3539	-16.6459	C.1
  2485	2	-7.38124	-12.0344	-16.7336	C.1
  2486	1	 18.4928	 8.41881	-19.8954	N.3
  2487	2	 19.3597	 8.94431	 -20.335	C.1
  2488	2	   19.26	 9.04539	-19.4058	C.1
  2489	2	  18.625	 7.37852	-20.2435	C.1
  2490	2	 18.5252	  7.4796	-19.3143	C.1
  2491	2	 17.6434	   8.782	-20.5016	C.1
  2492	2	 17.5436	 8.88308	-19.5724	C.1
  2493	1	 -2.3298	-17.0035	 2.99114	N.3
  2494	2	-3.09832	-17.5328	 3.58293	C.1
  2495	2	-2.72202	-16.7787	 3.99937	C.1
  2496	2	-2.84191	-16.8045	 2.03251	C.1
  2497	2	-2.46561	-16.0504	 2.44894	C.1
  2498	2	-1.61362	-17.8045	 2.73333	C.1
  2499	2	-1.23733	-17.0504	 3.14977	C.1
  2500	1	-14.1045	0.472092	 19.5269	N.3
  2501	2	-14.3216	-0.0568744	 18.5814	C.1
  2502	2	 -13.575	0.513838	  18.558	C.1
  2503	2	-14.0474	-0.34644	 20.2669	C.1
  2504	2	-13.3008	0.224272	 20.2435	C.1
  2505	2	-15.0644	0.963523	 19.7675	C.1
  2506	2	-14.3179	 1.53423	 19.7441	C.1
  2507	1	 7.77216	-8.90831	-0.622379	N.3
  2508	2	 7.95323	-8.78663	0.460814	C.1
  2509	2	 7.48856	 -8.0796	0.0511958	C.1
  2510	2	 7.27866	 -9.8948	-0.686728	C.1
  2511	2	 6.81398	-9.18777	-1.09635	C.1
  2512	2	 8.78161	-9.10404	 -1.0268	C.1
  2513	2	 8.31694	-8.39701	-1.43642	C.1
  2514	1	 -2.4968	 18.5832	-5.74911	N.3
  2515	2	-1.86412	 18.5717	-6.65492	C.1
  2516	2	  -2.063	 17.7262	-6.29534	C.1
  2517	2	-3.37331	 19.1794	-6.06078	C.1
  2518	2	-3.57218	 18.3339	 -5.7012	C.1
  2519	2	-1.95466	 19.2666	  -5.071	C.1
  2520	2	-2.15354	 18.4212	-4.71143	C.1
  2521	1	 6.09623	 2.98633	 14.3454	N.3
  2522	2	 5.70428	 3.61231	 13.5235	C.1
  2523	2	 5.42677	 2.71432	 13.5095	C.1
  2524	2	 5.81232	 3.55187	 15.2511	C.1
  2525	2	 5.53481	 2.65388	 15.2371	C.1
  2526	2	 7.18836	 3.14179	 14.2825	C.1
  2527	2	 6.91084	  2.2438	 14.2685	C.1
  2528	1	 6.47949	-14.4166	 -16.217	N.3
  2529	2	 7.49574	 -14.346	-15.7891	C.1
  2530	2	 6.80059	-14.4121	-15.1598	C.1
  2531	2	  6.5597	-15.2656	-16.9196	C.1
  2532	2	 5.86456	-15.3317	-16.2903	C.1
  2533	2	 6.42574	-13.5392	-16.8864	C.1
  2534	2	 5.73059	-13.6052	-16.2571	C.1
  2535	1	-19.9867	 13.2403	0.774471	N.3
  2536	2	-20.8859	 13.6115	0.250408	C.1
  2537	2	-20.7139	 14.0131	 1.08269	C.1
  2538	2	-19.1877	   13.36	0.0207625	C.1
  2539	2	-19.0157	 13.7616	0.853048	C.1
  2540	2	-20.1446	 12.1472	0.803814	C.1
  2541	2	-19.9726	 12.5488	  1.6361	C.1
  2542	1	-18.4905	-8.79853	-4.84407	N.3
  2543	2	-18.2881	-8.07449	-5.65381	C.1
  2544	2	-17.8253	-7.91634	-4.85106	C.1
  2545	2	-18.2854	-9.77415	-5.32047	C.1
  2546	2	-17.8226	  -9.616	-4.51773	C.1
  2547	2	-19.5923	-8.78419	-4.76204	C.1
  2548	2	-19.1295	-8.62603	 -3.9593	C.1
  2549	1	 5.52801	 8.78041	 12.5219	N.3
  2550	2	 5.03959	 7.79602	 12.4065	C.1
  2551	2	 4.63461	 8.50108	 11.9348	C.1
  2552	2	  6.5787	 8.57464	 12.2489	C.1
  2553	2	 6.17372	  9.2797	 11.7772	C.1
  2554	2	 5.57322	 8.91299	  13.618	C.1
  2555	2	 5.16823	 9.61805	 13.1463	C.1
  2556	1	-12.0428	-11.9516	 17.8961	N.3
  2557	2	-13.1226	-11.9833	 17.6634	C.1
  2558	2	-12.7516	-12.7974	 17.9519	C.1
  2559	2	-11.9641	-11.1177	 18.6167	C.1
  2560	2	-11.5931	-11.9318	 18.9051	C.1
  2561	2	-11.5983	-11.5326	 16.9754	C.1
  2562	2	-11.2274	-12.3467	 17.2638	C.1
  2563	1	-6.81241	-4.73634	 10.0326	N.3
  2564	2	-7.34123	 -4.1486	 10.8045	C.1
  2565	2	-7.15941	-3.68764	 10.0057	C.1
  2566	2	-7.44468	-5.63579	 9.92272	C.1
  2567	2	-7.26286	-5.17483	 9.12393	C.1
  2568	2	-5.92405	-5.11606	 10.5688	C.1
  2569	2	-5.74223	-4.65511	 9.76999	C.1
  2570	1	-6.07009	-12.2397	-9.73491	N.3
  2571	2	-7.02661	-12.6418	-10.1147	C.1
  2572	2	-6.49646	-13.2544	-9.63804	C.1
  2573	2	 -6.3804	-11.3446	-9.16626	C.1
  2574	2	-5.85025	-11.9572	-8.68957	C.1
  2575	2	-5.59848	-11.8137	-10.6388	C.1
  2576	2	-5.06833	-12.4264	-10.1621	C.1
  2577	1	-11.7794	 8.30345	  7.0815	N.3
  2578	2	-12.4294	 7.65818	 7.69967	C.1
  2579	2	-12.3959	 7.43497	 6.78717	C.1
  2580	2	  -10.81	 8.26619	 7.61032	C.1
  2581	2	-10.7766	 8.04298	 6.69782	C.1
  2582	2	-12.1492	  9.3208	 7.30324	C.1
  2583	2	-12.1157	 9.09758	 6.39074	C.1
  2584	1	-16.9771	-19.9952	-0.907018	N.3
  2585	2	-17.4263	-19.9246	-1.91402	C.1
  2586	2	-17.7304	-20.6433	-1.39007	C.1
  2587	2	-17.1571	-18.9925	-0.479189	C.1
  2588	2	-17.4612	-19.7113	0.0447653	C.1
  2589	2	-15.8917	-19.9904	-1.11377	C.1
  2590	2	-16.1957	-20.7092	-0.589819	C.1
  2591	1	 11.7397	 5.37571	 13.2267	N.3
  2592	2	 11.3907	 4.53244	 13.8495	C.1
  2593	2	 12.0881	 5.04185	 14.2207	C.1
  2594	2	 10.8105	 5.93482	 13.0149	C.1
  2595	2	 11.5079	 6.44423	  13.386	C.1
  2596	2	 11.9718	 4.89576	 12.2589	C.1
  2597	2	 12.6692	 5.40517	   12.63	C.1
  2598	1	 8.38907	-19.9158	 10.5472	N.3
  2599	2	 8.15125	-20.4402	 11.4903	C.1
  2600	2	 7.96207	-19.5195	 11.4861	C.1
  2601	2	 7.85192	-20.5094	  9.7857	C.1
  2602	2	 7.66273	-19.5886	 9.78156	C.1
  2603	2	  9.4478	-20.1788	  10.372	C.1
  2604	2	 9.25862	-19.2581	 10.3678	C.1
  2605	1	 13.3268	 7.24872	 17.0447	N.3
  2606	2	 14.0692	 6.45604	 17.2481	C.1
  2607	2	 13.2501	  6.1563	 16.8976	C.1
  2608	2	  13.882	 7.95613	 16.4027	C.1
  2609	2	 13.0629	 7.65639	 16.0522	C.1
  2610	2	 13.2578	 7.78359	 18.0091	C.1
  2611	2	 12.4387	 7.48385	 17.6586	C.1
  2612	1	 4.88336	-14.3584	-10.0753	N.3
  2613	2	 4.52246	   -13.9	-9.13693	C.1
  2614	2	 4.78819	-13.2919	 -9.8026	C.1
  2615	2	 4.05765	-15.0353	-10.3597	C.1
  2616	2	 4.32338	-14.4271	-11.0253	C.1
  2617	2	 5.67137	-15.0521	-9.73083	C.1
  2618	2	  5.9371	-14.4439	-10.3965	C.1
  2619	1	 8.42963	  10.212	 16.2242	N.3
  2620	2	 8.38985	 9.38023	 16.9505	C.1
  2621	2	 8.48748	 10.2358	 17.3274	C.1
  2622	2	 7.51501	 10.0653	 15.6219	C.1
  2623	2	 7.61265	 10.9209	 15.9987	C.1
  2624	2	 9.23757	 9.90701	 15.5349	C.1
  2625	2	 9.33521	 10.7626	 15.9118	C.1
  2626	1	-17.9447	-1.10657	 12.0685	N.3
  2627	2	-17.9024	-1.60849	 13.0519	C.1
  2628	2	-17.4592	-0.780819	 13.0061	C.1
  2629	2	-19.0269	-1.07299	 11.8483	C.1
  2630	2	-18.5837	-0.24532	 11.8025	C.1
  2631	2	-17.5695	-1.87974	  11.374	C.1
  2632	2	-17.1263	-1.05207	 11.3281	C.1
  2633	1	 15.3157	 17.6786	 18.9706	N.3
  2634	2	 15.6628	 17.7167	  20.019	C.1
  2635	2	 15.2603	 18.5049	 19.7021	C.1
  2636	2	 14.6716	  16.781	 18.9503	C.1
  2637	2	 14.2692	 17.5692	 18.6335	C.1
  2638	2	 16.2163	 17.3557	  18.418	C.1
  2639	2	 15.8139	 18.1439	 18.1011	C.1
  2640	1	 5.52882	 11.0283	-14.8369	N.3
  2641	2	 4.55489	 11.2696	-15.2996	C.1
  2642	2	 5.17774	 10.8577	-15.8706	C.1
  2643	2	 5.24611	 10.4388	-13.9462	C.1
  2644	2	 5.86895	 10.0268	-14.5171	C.1
  2645	2	 5.85119	 11.9944	-14.4084	C.1
  2646	2	 6.47403	 11.5825	-14.9794	C.1
  2647	1	-0.442523	-5.64837	-5.52241	N.3
  2648	2	-1.39902	-5.09694	-5.47844	C.1
  2649	2	-1.08612	-5.28633	-6.34436	C.1
  2650	2	-0.631187	-6.53242	-4.88702	C.1
  2651	2	-0.31829	-6.72181	-5.75295	C.1
  2652	2	0.233291	-5.03167	-4.90288	C.1
  2653	2	0.546188	-5.22106	-5.76881	C.1
  2654	1	-6.06924	  7.3719	  18.765	N.3
  2655	2	-5.63779	 6.36131	  18.649	C.1
  2656	2	-5.49045	  6.9443	 17.9265	C.1
  2657	2	-5.66051	 7.71139	 19.7337	C.1
  2658	2	-5.51316	 8.29439	 19.0112	C.1
  2659	2	-7.13044	 7.16851	 18.9959	C.1
  2660	2	 -6.9831	  7.7515	 18.2734	C.1
  2661	1	 9.85123	-11.4958	-18.4827	N.3
  2662	2	 10.8849	-11.2663	-18.1668	C.1
  2663	2	 10.8106	-11.8684	-18.8848	C.1
  2664	2	 9.41349	-10.4969	-18.6598	C.1
  2665	2	 9.33918	-11.0991	-19.3778	C.1
  2666	2	 9.36677	-11.8211	-17.5444	C.1
  2667	2	 9.29246	-12.4232	-18.2624	C.1
  2668	1	 11.5584	-6.69759	 17.5962	N.3
  2669	2	 12.1654	-5.88229	 18.0296	C.1
  2670	2	 11.4736	-6.20174	   18.58	C.1
  2671	2	 12.3148	-7.44962	 17.3077	C.1
  2672	2	  11.623	-7.76908	 17.8582	C.1
  2673	2	 11.2327	-6.28169	 16.6258	C.1
  2674	2	  10.541	-6.60115	 17.1763	C.1
  2675	1	 17.9101	-8.57834	-16.9829	N.3
  2676	2	 17.3563	-7.95825	-17.7107	C.1
  2677	2	 16.8239	 -8.5197	-17.1769	C.1
  2678	2	 18.5148	-7.83799	-16.4288	C.1
  2679	2	 17.9824	-8.39944	 -15.895	C.1
  2680	2	 18.6578	-9.09662	  -17.61	C.1
  2681	2	 18.1255	-9.65807	-17.0762	C.1
  2682	1	-2.52499	-2.78003	-3.76141	N.3
  2683	2	-2.24768	-3.26157	-2.80635	C.1
  2684	2	-2.72029	-2.45318	-2.72414	C.1
  2685	2	-3.05693	-3.58239	-4.30373	C.1
  2686	2	-3.52954	-2.77401	-4.22151	C.1
  2687	2	-1.56145	-2.70871	-4.29746	C.1
  2688	2	-2.03406	-1.90033	-4.21524	C.1
  2689	1	-15.1566	 18.0308	-9.95398	N.3
  2690	2	-15.3806	 17.0449	-10.3996	C.1
  2691	2	-16.1146	 17.6279	-10.3291	C.1
  2692	2	-14.3187	 18.4024	-10.5711	C.1
  2693	2	-15.0527	 18.9855	-10.5006	C.1
  2694	2	-14.6694	 17.7706	-8.99699	C.1
  2695	2	-15.4034	 18.3536	-8.92649	C.1
  2696	1	 11.4998	-14.4739	 4.64013	N.3
  2697	2	 12.4355	-14.7341	 4.11315	C.1
  2698	2	 11.8029	-14.2674	 3.59782	C.1
  2699	2	 11.8566	-13.9425	 5.54078	C.1
  2700	2	  11.224	-13.4758	 5.02545	C.1
  2701	2	 11.1563	-15.4452	 5.03947	C.1
  2702	2	 10.5237	-14.9785	 4.52413	C.1
  2703	1	 18.1531	-13.0239	 10.4158	N.3
  2704	2	 17.1271	-12.6702	  10.208	C.1
  2705	2	 17.4328	-13.3613	 9.64892	C.1
  2706	2	 18.1224	-13.2694	 11.4927	C.1
  2707	2	  18.428	-13.9605	 10.9336	C.1
  2708	2	 18.7514	-12.0955	 10.3854	C.1
  2709	2	  19.057	-12.7866	 9.82632	C.1
  2710	1	 7.07395	-0.970326	-17.0653	N.3
  2711	2	 6.11794	-1.10517	-17.6027	C.1
  2712	2	 6.08296	-1.26774	-16.6775	C.1
  2713	2	 7.38277	0.0511837	-17.3517	C.1
  2714	2	 7.34779	-0.111386	-16.4265	C.1
  2715	2	  7.7736	-1.61314	-17.6294	C.1
  2716	2	 7.73862	-1.77571	-16.7042	C.1
  2717	1	-9.63382	 9.48167	 3.90901	N.3
  2718	2	-9.73531	 10.5622	 3.70172	C.1
  2719	2	-9.96827	 9.99485	  2.9894	C.1
  2720	2	-10.2258	 9.34481	 4.83186	C.1
  2721	2	-10.4588	 8.77742	 4.11954	C.1
  2722	2	-8.59088	 9.38904	 4.26193	C.1
  2723	2	-8.82384	 8.82165	 3.54961	C.1
  2724	1	 4.17108	 7.93714	 9.12494	N.3
  2725	2	 4.74398	 8.27768	 10.0063	C.1
  2726	2	 5.23934	 7.79557	 9.36924	C.1
  2727	2	 3.70471	 8.86687	 8.75218	C.1
  2728	2	 4.20007	 8.38477	 8.11516	C.1
  2729	2	 3.32152	 7.39004	 9.57191	C.1
  2730	2	 3.81688	 6.90793	 8.93489	C.1
  2731	1	-19.9863	-15.1785	 -15.975	N.3
  2732	2	-21.0393	-15.3054	-16.2847	C.1
  2733	2	-20.8279	-15.6499	-15.4361	C.1
  2734	2	-19.8158	-14.0937	-16.0976	C.1
  2735	2	-19.6044	-14.4383	 -15.249	C.1
  2736	2	-19.4209	-15.6196	-16.8156	C.1
  2737	2	-19.2094	-15.9642	 -15.967	C.1
  2738	1	 15.5444	-13.6157	 16.9341	N.3
  2739	2	 16.3767	 -14.206	 16.5101	C.1
  2740	2	 16.0398	-14.5208	 17.3293	C.1
  2741	2	 14.8124	 -13.581	 16.1072	C.1
  2742	2	 14.4756	-13.8958	 16.9263	C.1
  2743	2	 15.9493	-12.5879	 16.9563	C.1
  2744	2	 15.6125	-12.9027	 17.7755	C.1
  2745	1	-17.5187	0.138487	 13.4376	N.3
  2746	2	-18.1779	-0.490939	 14.0622	C.1
  2747	2	-18.5947	-0.0852058	 13.3238	C.1
  2748	2	-16.6817	-0.539414	  13.191	C.1
  2749	2	-17.0986	-0.133681	 12.4526	C.1
  2750	2	-17.0711	0.837216	 14.1672	C.1
  2751	2	 -17.488	 1.24295	 13.4288	C.1
  2752	1	-8.81367	 4.78211	-6.14826	N.3
  2753	2	-8.53805	 5.70516	-6.68949	C.1
  2754	2	-8.74909	 5.82223	  -5.781	C.1
  2755	2	-7.96227	 4.10732	-6.34983	C.1
  2756	2	-8.17331	  4.2244	-5.44134	C.1
  2757	2	-9.62414	 4.35825	-6.76821	C.1
  2758	2	-9.83518	 4.47532	-5.85972	C.1
  2759	1	 1.94805	-15.4809	-12.1035	N.3
  2760	2	 2.10617	-14.3961	-11.9652	C.1
  2761	2	 2.71636	-14.9499	 -11.513	C.1
  2762	2	 1.93386	 -15.596	-13.2023	C.1
  2763	2	 2.54406	-16.1499	-12.7501	C.1
  2764	2	0.888837	-15.6197	-11.8213	C.1
  2765	2	 1.49903	-16.1736	-11.3691	C.1
  2766	1	0.00449315	-18.8738	 2.29866	N.3
  2767	2	0.798142	 -19.568	 2.62893	C.1
  2768	2	-0.00369566	-19.9771	 2.35818	C.1
  2769	2	0.506682	-18.2659	 1.52464	C.1
  2770	2	-0.295155	 -18.675	 1.25389	C.1
  2771	2	-0.0885883	-18.1739	 3.14853	C.1
  2772	2	-0.890426	-18.5829	 2.87778	C.1
  2773	1	-3.68949	 1.44427	-10.2447	N.3
  2774	2	-4.34176	 1.70252	-11.0983	C.1
  2775	2	-4.75794	  1.2162	-10.4099	C.1
  2776	2	-3.26992	 2.42086	-9.94288	C.1
  2777	2	-3.68609	 1.93454	-9.25448	C.1
  2778	2	-2.83254	 0.93891	-10.7254	C.1
  2779	2	-3.24871	0.452586	 -10.037	C.1
  2780	1	-10.8528	-11.8558	-11.5604	N.3
  2781	2	-11.9567	-11.8685	-11.6058	C.1
  2782	2	-11.5681	-11.0137	-11.5633	C.1
  2783	2	 -10.557	-12.4636	-12.4344	C.1
  2784	2	-10.1684	-11.6088	 -12.392	C.1
  2785	2	-10.6275	-12.5175	-10.7047	C.1
  2786	2	-10.2389	-11.6627	-10.6622	C.1
  2787	1	-13.3868	 3.92017	 10.1403	N.3
  2788	2	-13.7984	 2.91681	 10.3519	C.1
  2789	2	-12.8714	 3.00405	 10.4808	C.1
  2790	2	-14.0125	 4.58603	 10.7617	C.1
  2791	2	-13.0854	 4.67326	 10.8905	C.1
  2792	2	-13.7402	  4.1268	   9.114	C.1
  2793	2	-12.8132	 4.21404	 9.24286	C.1
  2794	1	0.285976	 1.47843	 12.1799	N.3
  2795	2	-0.178517	 1.94371	 13.0679	C.1
  2796	2	0.759725	 1.89031	 13.0892	C.1
  2797	2	-0.132671	 2.06255	 11.3406	C.1
  2798	2	0.805571	 2.00915	 11.3618	C.1
  2799	2	-0.238248	0.509128	 12.0993	C.1
  2800	2	0.699994	0.455728	 12.1205	C.1
@<TRIPOS>BOND
       1	       1	       2	 1
       2	       1	       3	 1
       3	       1	       4	 1
       4	       1	       5	 1
       5	       1	       6	 1
       6	       1	       7	 1
       7	       8	       9	 1
       8	       8	      10	 1
       9	       8	      11	 1
      10	       8	      12	 1
      11	       8	      13	 1
      12	       8	      14	 1
      13	      15	      16	 1
      14	      15	      17	 1
      15	      15	      18	 1
      16	      15	      19	 1
      17	      15	      20	 1
      18	      15	      21	 1
      19	      22	      23	 1
      20	      22	      24	 1
      21	      22	      25	 1
      22	      22	      26	 1
      23	      22	      27	 1
      24	      22	      28	 1
      25	      29	      30	 1
      26	      29	      31	 1
      27	      29	      32	 1
      28	      29	      33	 1
      29	      29	      34	 1
      30	      29	      35	 1
      31	      36	      37	 1
      32	      36	      38	 1
      33	      36	      39	 1
      34	      36	      40	 1
      35	      36	      41	 1
      36	      36	      42	 1
      37	      43	      44	 1
      38	      43	      45	 1
      39	      43	      46	 1
      40	      43	      47	 1
      41	      43	      48	 1
      42	      43	      49	 1
      43	      50	      51	 1
      44	      50	      52	 1
      45	      50	      53	 1
      46	      50	      54	 1
      47	      50	      55	 1
      48	      50	      56	 1
      49	      57	      58	 1
      50	      57	      59	 1
      51	      57	      60	 1
      52	      57	      61	 1
      53	      57	      62	 1
      54	      57	      63	 1
      55	      64	      65	 1
      56	      64	      66	 1
      57	      64	      67	 1
      58	      64	      68	 1
      59	      64	      69	 1
      60	      64	      70	 1
      61	      71	      72	 1
      62	      71	      73	 1
      63	      71	      74	 1
      64	      71	      75	 1
      65	      71	      76	 1
      66	      71	      77	 1
      67	      78	      79	 1
      68	      78	      80	 1
      69	      78	      81	 1
      70	      78	      82	 1
      71	      78	      83	 1
      72	      78	      84	 1
      73	      85	      86	 1
      74	      85	      87	 1
      75	      85	      88	 1
      76	      85	      89	 1
      77	      85	      90	 1
      78	      85	      91	 1
      79	      92	      93	 1
      80	      92	      94	 1
      81	      92	      95	 1
      82	      92	      96	 1
      83	      92	      97	 1
      84	      92	      98	 1
      85	      99	     100	 1
      86	      99	     101	 1
      87	      99	     102	 1
      88	      99	     103	 1
      89	      99	     104	 1
      90	      99	     105	 1
      91	     106	     107	 1
      92	     106	     108	 1
      93	     106	     109	 1
      94	     106	     110	 1
      95	     106	     111	 1
      96	     106	     112	 1
      97	     113	     114	 1
      98	     113	     115	 1
      99	     113	     116	 1
     100	     113	     117	 1
     101	     113	     118	 1
     102	     113	     119	 1
     103	     120	     121	 1
     104	     120	     122	 1
     105	     120	     123	 1
     106	     120	     124	 1
     107	     120	     125	 1
     108	     120	     126	 1
     109	     127	     128	 1
     110	     127	     129	 1
     111	     127	     130	 1
     112	     127	     131	 1
     113	     127	     132	 1
     114	     127	     133	 1
     115	     134	     135	 1
     116	     134	     136	 1
     117	     134	     137	 1
     118	     134	     138	 1
     119	     134	     139	 1
     120	     134	     140	 1
     121	     141	     142	 1
     122	     141	     143	 1
     123	     141	     144	 1
     124	     141	     145	 1
     125	     141	     146	 1
     126	     141	     147	 1
     127	     148	     149	 1
     128	     148	     150	 1
     129	     148	     151	 1
     130	     148	     152	 1
     131	     148	     153	 1
     132	     148	     154	 1
     133	     155	     156	 1
     134	     155	     157	 1
     135	     155	     158	 1
     136	     155	     159	 1
     137	     155	     160	 1
     138	     155	     161	 1
     139	     162	     163	 1
     140	     162	     164	 1
     141	     162	     165	 1
     142	     162	     166	 1
     143	     162	     167	 1
     144	     162	     168	 1
     145	     169	     170	 1
     146	     169	     171	 1
     147	     169	     172	 1
     148	     169	     173	 1
     149	     169	     174	 1
     150	     169	     175	 1
     151	     176	     177	 1
     152	     176	     178	 1
     153	     176	     179	 1
     154	     176	     180	 1
     155	     176	     181	 1
     156	     176	     182	 1
     157	     183	     184	 1
     158	     183	     185	 1
     159	     183	     186	 1
     160	     183	     187	 1
     161	     183	     188	 1
     162	     183	     189	 1
     163	     190	     191	 1
     164	     190	     192	 1
     165	     190	     193	 1
     166	     190	     194	 1
     167	     190	     195	 1
     168	     190	     196	 1
     169	     197	     198	 1
     170	     197	     199	 1
     171	     197	     200	 1
     172	     197	     201	 1
     173	     197	     202	 1
     174	     197	     203	 1
     175	     204	     205	 1
     176	     204	     206	 1
     177	     204	     207	 1
     178	     204	     208	 1
     179	     204	     209	 1
     180	     204	     210	 1
     181	     211	     212	 1
     182	     211	     213	 1
     183	     211	     214	 1
     184	     211	     215	 1
     185	     211	     216	 1
     186	     211	     217	 1
     187	     218	     219	 1
     188	     218	     220	 1
     189	     218	     221	 1
     190	     218	     222	 1
     191	     218	     223	 1
     192	     218	     224	 1
     193	     225	     226	 1
     194	     225	     227	 1
     195	     225	     228	 1
     196	     225	     229	 1
     197	     225	     230	 1
     198	     225	     231	 1
     199	     232	     233	 1
     200	     232	     234	 1
     201	     232	     235	 1
     202	     232	     236	 1
     203	     232	     237	 1
     204	     232	     238	 1
     205	     239	     240	 1
     206	     239	     241	 1
     207	     239	     242	 1
     208	     239	     243	 1
     209	     239	     244	 1
     210	     239	     245	 1
     211	     246	     247	 1
     212	     246	     248	 1
     213	     246	     249	 1
     214	     246	     250	 1
     215	     246	     251	 1
     216	     246	     252	 1
     217	     253	     254	 1
     218	     253	     255	 1
     219	     253	     256	 1
     220	     253	     257	 1
     221	     253	     258	 1
     222	     253	     259	 1
     223	     260	     261	 1
     224	     260	     262	 1
     225	     260	     263	 1
     226	     260	     264	 1
     227	     260	     265	 1
     228	     260	     266	 1
     229	     267	     268	 1
     230	     267	     269	 1
     231	     267	     270	 1
     232	     267	     271	 1
     233	     267	     272	 1
     234	     267	     273	 1
     235	     274	     275	 1
     236	     274	     276	 1
     237	     274	     277	 1
     238	     274	     278	 1
     239	     274	     279	 1
     240	     274	     280	 1
     241	     281	     282	 1
     242	     281	     283	 1
     243	     281	     284	 1
     244	     281	     285	 1
     245	     281	     286	 1
     246	     281	     287	 1
     247	     288	     289	 1
     248	     288	     290	 1
     249	     288	     291	 1
     250	     288	     292	 1
     251	     288	     293	 1
     252	     288	     294	 1
     253	     295	     296	 1
     254	     295	     297	 1
     255	     295	     298	 1
     256	     295	     299	 1
     257	     295	     300	 1
     258	     295	     301	 1
     259	     302	     303	 1
     260	     302	     304	 1
     261	     302	     305	 1
     262	     302	     306	 1
     263	     302	     307	 1
     264	     302	     308	 1
     265	     309	     310	 1
     266	     309	     311	 1
     267	     309	     312	 1
     268	     309	     313	 1
     269	     309	     314	 1
     270	     309	     315	 1
     271	     316	     317	 1
     272	     316	     318	 1
     273	     316	     319	 1
     274	     316	     320	 1
     275	     316	     321	 1
     276	     316	     322	 1
     277	     323	     324	 1
     278	     323	     325	 1
     279	     323	     326	 1
     280	     323	     327	 1
     281	     323	     328	 1
     282	     323	     329	 1
     283	     330	     331	 1
     284	     330	     332	 1
     285	     330	     333	 1
     286	     330	     334	 1
     287	     330	     335	 1
     288	     330	     336	 1
     289	     337	     338	 1
     290	     337	     339	 1
     291	     337	     340	 1
     292	     337	     341	 1
     293	     337	     342	 1
     294	     337	     343	 1
     295	     344	     345	 1
     296	     344	     346	 1
     297	     344	     347	 1
     298	     344	     348	 1
     299	     344	     349	 1
     300	     344	     350	 1
     301	     351	     352	 1
     302	     351	     353	 1
     303	     351	     354	 1
     304	     351	     355	 1
     305	     351	     356	 1
     306	     351	     357	 1
     307	     358	     359	 1
     308	     358	     360	 1
     309	     358	     361	 1
     310	     358	     362	 1
     311	     358	     363	 1
     312	     358	     364	 1
     313	     365	     366	 1
     314	     365	     367	 1
     315	     365	     368	 1
     316	     365	     369	 1
     317	     365	     370	 1
     318	     365	     371	 1
     319	     372	     373	 1
     320	     372	     374	 1
     321	     372	     375	 1
     322	     372	     376	 1
     323	     372	     377	 1
     324	     372	     378	 1
     325	     379	     380	 1
     326	     379	     381	 1
     327	     379	     382	 1
     328	     379	     383	 1
     329	     379	     384	 1
     330	     379	     385	 1
     331	     386	     387	 1
     332	     386	     388	 1
     333	     386	     389	 1
     334	     386	     390	 1
     335	     386	     391	 1
     336	     386	     392	 1
     337	     393	     394	 1
     338	     393	     395	 1
     339	     393	     396	 1
     340	     393	     397	 1
     341	     393	     398	 1
     342	     393	     399	 1
     343	     400	     401	 1
     344	     400	     402	 1
     345	     400	     403	 1
     346	     400	     404	 1
     347	     400	     405	 1
     348	     400	     406	 1
     349	     407	     408	 1
     350	     407	     409	 1
     351	     407	     410	 1
     352	     407	     411	 1
     353	     407	     412	 1
     354	     407	     413	 1
     355	     414	     415	 1
     356	     414	     416	 1
     357	     414	     417	 1
     358	     414	     418	 1
     359	     414	     419	 1
     360	     414	     420	 1
     361	     421	     422	 1
     362	     421	     423	 1
     363	     421	     424	 1
     364	     421	     425	 1
     365	     421	     426	 1
     366	     421	     427	 1
     367	     428	     429	 1
     368	     428	     430	 1
     369	     428	     431	 1
     370	     428	     432	 1
     371	     428	     433	 1
     372	     428	     434	 1
     373	     435	     436	 1
     374	     435	     437	 1
     375	     435	     438	 1
     376	     435	     439	 1
     377	     435	     440	 1
     378	     435	     441	 1
     379	     442	     443	 1
     380	     442	     444	 1
     381	     442	     445	 1
     382	     442	     446	 1
     383	     442	     447	 1
     384	     442	     448	 1
     385	     449	     450	 1
     386	     449	     451	 1
     387	     449	     452	 1
     388	     449	     453	 1
     389	     449	     454	 1
     390	     449	     455	 1
     391	     456	     457	 1
     392	     456	     458	 1
     393	     456	     459	 1
     394	     456	     460	 1
     395	     456	     461	 1
     396	     456	     462	 1
     397	     463	     464	 1
     398	     463	     465	 1
     399	     463	     466	 1
     400	     463	     467	 1
     401	     463	     468	 1
     402	     463	     469	 1
     403	     470	     471	 1
     404	     470	     472	 1
     405	     470	     473	 1
     406	     470	     474	 1
     407	     470	     475	 1
     408	     470	     476	 1
     409	     477	     478	 1
     410	     477	     479	 1
     411	     477	     480	 1
     412	     477	     481	 1
     413	     477	     482	 1
     414	     477	     483	 1
     415	     484	     485	 1
     416	     484	     486	 1
     417	     484	     487	 1
     418	     484	     488	 1
     419	     484	     489	 1
     420	     484	     490	 1
     421	     491	     492	 1
     422	     491	     493	 1
     423	     491	     494	 1
     424	     491	     495	 1
     425	     491	     496	 1
     426	     491	     497	 1
     427	     498	     499	 1
     428	     498	     500	 1
     429	     498	     501	 1
     430	     498	     502	 1
     431	     498	     503	 1
     432	     498	     504	 1
     433	     505	     506	 1
     434	     505	     507	 1
     435	     505	     508	 1
     436	     505	     509	 1
     437	     505	     510	 1
     438	     505	     511	 1
     439	     512	     513	 1
     440	     512	     514	 1
     441	     512	     515	 1
     442	     512	     516	 1
     443	     512	     517	 1
     444	     512	     518	 1
     445	     519	     520	 1
     446	     519	     521	 1
     447	     519	     522	 1
     448	     519	     523	 1
     449	     519	     524	 1
     450	     519	     525	 1
     451	     526	     527	 1
     452	     526	     528	 1
     453	     526	     529	 1
     454	     526	     530	 1
     455	     526	     531	 1
     456	     526	     532	 1
     457	     533	     534	 1
     458	     533	     535	 1
     459	     533	     536	 1
     460	     533	     537	 1
     461	     533	     538	 1
     462	     533	     539	 1
     463	     540	     541	 1
     464	     540	     542	 1
     465	     540	     543	 1
     466	     540	     544	 1
     467	     540	     545	 1
     468	     540	     546	 1
     469	     547	     548	 1
     470	     547	     549	 1
     471	     547	     550	 1
     472	     547	     551	 1
     473	     547	     552	 1
     474	     547	     553	 1
     475	     554	     555	 1
     476	     554	     556	 1
     477	     554	     557	 1
     478	     554	     558	 1
     479	     554	     559	 1
     480	     554	     560	 1
     481	     561	     562	 1
     482	     561	     563	 1
     483	     561	     564	 1
     484	     561	     565	 1
     485	     561	     566	 1
     486	     561	     567	 1
     487	     568	     569	 1
     488	     568	     570	 1
     489	     568	     571	 1
     490	     568	     572	 1
     491	     568	     573	 1
     492	     568	     574	 1
     493	     575	     576	 1
     494	     575	     577	 1
     495	     575	     578	 1
     496	     575	     579	 1
     497	     575	     580	 1
     498	     575	     581	 1
     499	     582	     583	 1
     500	     582	     584	 1
     501	     582	     585	 1
     502	     582	     586	 1
     503	     582	     587	 1
     504	     582	     588	 1
     505	     589	     590	 1
     506	     589	     591	 1
     507	     589	     592	 1
     508	     589	     593	 1
     509	     589	     594	 1
     510	     589	     595	 1
     511	     596	     597	 1
     512	     596	     598	 1
     513	     596	     599	 1
     514	     596	     600	 1
     515	     596	     601	 1
     516	     596	     602	 1
     517	     603	     604	 1
     518	     603	     605	 1
     519	     603	     606	 1
     520	     603	     607	 1
     521	     603	     608	 1
     522	     603	     609	 1
     523	     610	     611	 1
     524	     610	     612	 1
     525	     610	     613	 1
     526	     610	     614	 1
     527	     610	     615	 1
     528	     610	     616	 1
     529	     617	     618	 1
     530	     617	     619	 1
     531	     617	     620	 1
     532	     617	     621	 1
     533	     617	     622	 1
     534	     617	     623	 1
     535	     624	     625	 1
     536	     624	     626	 1
     537	     624	     627	 1
     538	     624	     628	 1
     539	     624	     629	 1
     540	     624	     630	 1
     541	     631	     632	 1
     542	     631	     633	 1
     543	     631	     634	 1
     544	     631	     635	 1
     545	     631	     636	 1
     546	     631	     637	 1
     547	     638	     639	 1
     548	     638	     640	 1
     549	     638	     641	 1
     550	     638	     642	 1
     551	     638	     643	 1
     552	     638	     644	 1
     553	     645	     646	 1
     554	     645	     647	 1
     555	     645	     648	 1
     556	     645	     649	 1
     557	     645	     650	 1
     558	     645	     651	 1
     559	     652	     653	 1
     560	     652	     654	 1
     561	     652	     655	 1
     562	     652	     656	 1
     563	     652	     657	 1
     564	     652	     658	 1
     565	     659	     660	 1
     566	     659	     661	 1
     567	     659	     662	 1
     568	     659	     663	 1
     569	     659	     664	 1
     570	     659	     665	 1
     571	     666	     667	 1
     572	     666	     668	 1
     573	     666	     669	 1
     574	     666	     670	 1
     575	     666	     671	 1
     576	     666	     672	 1
     577	     673	     674	 1
     578	     673	     675	 1
     579	     673	     676	 1
     580	     673	     677	 1
     581	     673	     678	 1
     582	     673	     679	 1
     583	     680	     681	 1
     584	     680	     682	 1
     585	     680	     683	 1
     586	     680	     684	 1
     587	     680	     685	 1
     588	     680	     686	 1
     589	     687	     688	 1
     590	     687	     689	 1
     591	     687	     690	 1
     592	     687	     691	 1
     593	     687	     692	 1
     594	     687	     693	 1
     595	     694	     695	 1
     596	     694	     696	 1
     597	     694	     697	 1
     598	     694	     698	 1
     599	     694	     699	 1
     600	     694	     700	 1
     601	     701	     702	 1
     602	     701	     703	 1
     603	     701	     704	 1
     604	     701	     705	 1
     605	     701	     706	 1
     606	     701	     707	 1
     607	     708	     709	 1
     608	     708	     710	 1
     609	     708	     711	 1
     610	     708	     712	 1
     611	     708	     713	 1
     612	     708	     714	 1
     613	     715	     716	 1
     614	     715	     717	 1
     615	     715	     718	 1
     616	     715	     719	 1
     617	     715	     720	 1
     618	     715	     721	 1
     619	     722	     723	 1
     620	     722	     724	 1
     621	     722	     725	 1
     622	     722	     726	 1
     623	     722	     727	 1
     624	     722	     728	 1
     625	     729	     730	 1
     626	     729	     731	 1
     627	     729	     732	 1
     628	     729	     733	 1
     629	     729	     734	 1
     630	     729	     735	 1
     631	     736	     737	 1
     632	     736	     738	 1
     633	     736	     739	 1
     634	     736	     740	 1
     635	     736	     741	 1
     636	     736	     742	 1
     637	     743	     744	 1
     638	     743	     745	 1
     639	     743	     746	 1
     640	     743	     747	 1
     641	     743	     748	 1
     642	     743	     749	 1
     643	     750	     751	 1
     644	     750	     752	 1
     645	     750	     753	 1
     646	     750	     754	 1
     647	     750	     755	 1
     648	     750	     756	 1
     649	     757	     758	 1
     650	     757	     759	 1
     651	     757	     760	 1
     652	     757	     761	 1
     653	     757	     762	 1
     654	     757	     763	 1
     655	     764	     765	 1
     656	     764	     766	 1
     657	     764	     767	 1
     658	     764	     768	 1
     659	     764	     769	 1
     660	     764	     770	 1
     661	     771	     772	 1
     662	     771	     773	 1
     663	     771	     774	 1
     664	     771	     775	 1
     665	     771	     776	 1
     666	     771	     777	 1
     667	     778	     779	 1
     668	     778	     780	 1
     669	     778	     781	 1
     670	     778	     782	 1
     671	     778	     783	 1
     672	     778	     784	 1
     673	     785	     786	 1
     674	     785	     787	 1
     675	     785	     788	 1
     676	     785	     789	 1
     677	     785	     790	 1
     678	     785	     791	 1
     679	     792	     793	 1
     680	     792	     794	 1
     681	     792	     795	 1
     682	     792	     796	 1
     683	     792	     797	 1
     684	     792	     798	 1
     685	     799	     800	 1
     686	     799	     801	 1
     687	     799	     802	 1
     688	     799	     803	 1
     689	     799	     804	 1
     690	     799	     805	 1
     691	     806	     807	 1
     692	     806	     808	 1
     693	     806	     809	 1
     694	     806	     810	 1
     695	     806	     811	 1
     696	     806	     812	 1
     697	     813	     814	 1
     698	     813	     815	 1
     699	     813	     816	 1
     700	     813	     817	 1
     701	     813	     818	 1
     702	     813	     819	 1
     703	     820	     821	 1
     704	     820	     822	 1
     705	     820	     823	 1
     706	     820	     824	 1
     707	     820	     825	 1
     708	     820	     826	 1
     709	     827	     828	 1
     710	     827	     829	 1
     711	     827	     830	 1
     712	     827	     831	 1
     713	     827	     832	 1
     714	     827	     833	 1
     715	     834	     835	 1
     716	     834	     836	 1
     717	     834	     837	 1
     718	     834	     838	 1
     719	     834	     839	 1
     720	     834	     840	 1
     721	     841	     842	 1
     722	     841	     843	 1
     723	     841	     844	 1
     724	     841	     845	 1
     725	     841	     846	 1
     726	     841	     847	 1
     727	     848	     849	 1
     728	     848	     850	 1
     729	     848	     851	 1
     730	     848	     852	 1
     731	     848	     853	 1
     732	     848	     854	 1
     733	     855	     856	 1
     734	     855	     857	 1
     735	     855	     858	 1
     736	     855	     859	 1
     737	     855	     860	 1
     738	     855	     861	 1
     739	     862	     863	 1
     740	     862	     864	 1
     741	     862	     865	 1
     742	     862	     866	 1
     743	     862	     867	 1
     744	     862	     868	 1
     745	     869	     870	 1
     746	     869	     871	 1
     747	     869	     872	 1
     748	     869	     873	 1
     749	     869	     874	 1
     750	     869	     875	 1
     751	     876	     877	 1
     752	     876	     878	 1
     753	     876	     879	 1
     754	     876	     880	 1
     755	     876	     881	 1
     756	     876	     882	 1
     757	     883	     884	 1
     758	     883	     885	 1
     759	     883	     886	 1
     760	     883	     887	 1
     761	     883	     888	 1
     762	     883	     889	 1
     763	     890	     891	 1
     764	     890	     892	 1
     765	     890	     893	 1
     766	     890	     894	 1
     767	     890	     895	 1
     768	     890	     896	 1
     769	     897	     898	 1
     770	     897	     899	 1
     771	     897	     900	 1
     772	     897	     901	 1
     773	     897	     902	 1
     774	     897	     903	 1
     775	     904	     905	 1
     776	     904	     906	 1
     777	     904	     907	 1
     778	     904	     908	 1
     779	     904	     909	 1
     780	     904	     910	 1
     781	     911	     912	 1
     782	     911	     913	 1
     783	     911	     914	 1
     784	     911	     915	 1
     785	     911	     916	 1
     786	     911	     917	 1
     787	     918	     919	 1
     788	     918	     920	 1
     789	     918	     921	 1
     790	     918	     922	 1
     791	     918	     923	 1
     792	     918	     924	 1
     793	     925	     926	 1
     794	     925	     927	 1
     795	     925	     928	 1
     796	     925	     929	 1
     797	     925	     930	 1
     798	     925	     931	 1
     799	     932	     933	 1
     800	     932	     934	 1
     801	     932	     935	 1
     802	     932	     936	 1
     803	     932	     937	 1
     804	     932	     938	 1
     805	     939	     940	 1
     806	     939	     941	 1
     807	     939	     942	 1
     808	     939	     943	 1
     809	     939	     944	 1
     810	     939	     945	 1
     811	     946	     947	 1
     812	     946	     948	 1
     813	     946	     949	 1
     814	     946	     950	 1
     815	     946	     951	 1
     816	     946	     952	 1
     817	     953	     954	 1
     818	     953	     955	 1
     819	     953	     956	 1
     820	     953	     957	 1
     821	     953	     958	 1
     822	     953	     959	 1
     823	     960	     961	 1
     824	     960	     962	 1
     825	     960	     963	 1
     826	     960	     964	 1
     827	     960	     965	 1
     828	     960	     966	 1
     829	     967	     968	 1
     830	     967	     969	 1
     831	     967	     970	 1
     832	     967	     971	 1
     833	     967	     972	 1
     834	     967	     973	 1
     835	     974	     975	 1
     836	     974	     976	 1
     837	     974	     977	 1
     838	     974	     978	 1
     839	     974	     979	 1
     840	     974	     980	 1
     841	     981	     982	 1
     842	     981	     983	 1
     843	     981	     984	 1
     844	     981	     985	 1
     845	     981	     986	 1
     846	     981	     987	 1
     847	     988	     989	 1
     848	     988	     990	 1
     849	     988	     991	 1
     850	     988	     992	 1
     851	     988	     993	 1
     852	     988	     994	 1
     853	     995	     996	 1
     854	     995	     997	 1
     855	     995	     998	 1
     856	     995	     999	 1
     857	     995	    1000	 1
     858	     995	    1001	 1
     859	    1002	    1003	 1
     860	    1002	    1004	 1
     861	    1002	    1005	 1
     862	    1002	    1006	 1
     863	    1002	    1007	 1
     864	    1002	    1008	 1
     865	    1009	    1010	 1
     866	    1009	    1011	 1
     867	    1009	    1012	 1
     868	    1009	    1013	 1
     869	    1009	    1014	 1
     870	    1009	    1015	 1
     871	    1016	    1017	 1
     872	    1016	    1018	 1
     873	    1016	    1019	 1
     874	    1016	    1020	 1
     875	    1016	    1021	 1
     876	    1016	    1022	 1
     877	    1023	    1024	 1
     878	    1023	    1025	 1
     879	    1023	    1026	 1
     880	    1023	    1027	 1
     881	    1023	    1028	 1
     882	    1023	    1029	 1
     883	    1030	    1031	 1
     884	    1030	    1032	 1
     885	    1030	    1033	 1
     886	    1030	    1034	 1
     887	    1030	    1035	 1
     888	    1030	    1036	 1
     889	    1037	    1038	 1
     890	    1037	    1039	 1
     891	    1037	    1040	 1
     892	    1037	    1041	 1
     893	    1037	    1042	 1
     894	    1037	    1043	 1
     895	    1044	    1045	 1
     896	    1044	    1046	 1
     897	    1044	    1047	 1
     898	    1044	    1048	 1
     899	    1044	    1049	 1
     900	    1044	    1050	 1
     901	    1051	    1052	 1
     902	    1051	    1053	 1
     903	    1051	    1054	 1
     904	    1051	    1055	 1
     905	    1051	    1056	 1
     906	    1051	    1057	 1
     907	    1058	    1059	 1
     908	    1058	    1060	 1
     909	    1058	    1061	 1
     910	    1058	    1062	 1
     911	    1058	    1063	 1
     912	    1058	    1064	 1
     913	    1065	    1066	 1
     914	    1065	    1067	 1
     915	    1065	    1068	 1
     916	    1065	    1069	 1
     917	    1065	    1070	 1
     918	    1065	    1071	 1
     919	    1072	    1073	 1
     920	    1072	    1074	 1
     921	    1072	    1075	 1
     922	    1072	    1076	 1
     923	    1072	    1077	 1
     924	    1072	    1078	 1
     925	    1079	    1080	 1
     926	    1079	    1081	 1
     927	    1079	    1082	 1
     928	    1079	    1083	 1
     929	    1079	    1084	 1
     930	    1079	    1085	 1
     931	    1086	    1087	 1
     932	    1086	    1088	 1
     933	    1086	    1089	 1
     934	    1086	    1090	 1
     935	    1086	    1091	 1
     936	    1086	    1092	 1
     937	    1093	    1094	 1
     938	    1093	    1095	 1
     939	    1093	    1096	 1
     940	    1093	    1097	 1
     941	    1093	    1098	 1
     942	    1093	    1099	 1
     943	    1100	    1101	 1
     944	    1100	    1102	 1
     945	    1100	    1103	 1
     946	    1100	    1104	 1
     947	    1100	    1105	 1
     948	    1100	    1106	 1
     949	    1107	    1108	 1
     950	    1107	    1109	 1
     951	    1107	    1110	 1
     952	    1107	    1111	 1
     953	    1107	    1112	 1
     954	    1107	    1113	 1
     955	    1114	    1115	 1
     956	    1114	    1116	 1
     957	    1114	    1117	 1
     958	    1114	    1118	 1
     959	    1114	    1119	 1
     960	    1114	    1120	 1
     961	    1121	    1122	 1
     962	    1121	    1123	 1
     963	    1121	    1124	 1
     964	    1121	    1125	 1
     965	    1121	    1126	 1
     966	    1121	    1127	 1
     967	    1128	    1129	 1
     968	    1128	    1130	 1
     969	    1128	    1131	 1
     970	    1128	    1132	 1
     971	    1128	    1133	 1
     972	    1128	    1134	 1
     973	    1135	    1136	 1
     974	    1135	    1137	 1
     975	    1135	    1138	 1
     976	    1135	    1139	 1
     977	    1135	    1140	 1
     978	    1135	    1141	 1
     979	    1142	    1143	 1
     980	    1142	    1144	 1
     981	    1142	    1145	 1
     982	    1142	    1146	 1
     983	    1142	    1147	 1
     984	    1142	    1148	 1
     985	    1149	    1150	 1
     986	    1149	    1151	 1
     987	    1149	    1152	 1
     988	    1149	    1153	 1
     989	    1149	    1154	 1
     990	    1149	    1155	 1
     991	    1156	    1157	 1
     992	    1156	    1158	 1
     993	    1156	    1159	 1
     994	    1156	    1160	 1
     995	    1156	    1161	 1
     996	    1156	    1162	 1
     997	    1163	    1164	 1
     998	    1163	    1165	 1
     999	    1163	    1166	 1
    1000	    1163	    1167	 1
    1001	    1163	    1168	 1
    1002	    1163	    1169	 1
    1003	    1170	    1171	 1
    1004	    1170	    1172	 1
    1005	    1170	    1173	 1
    1006	    1170	    1174	 1
    1007	    1170	    1175	 1
    1008	    1170	    1176	 1
    1009	    1177	    1178	 1
    1010	    1177	    1179	 1
    1011	    1177	    1180	 1
    1012	    1177	    1181	 1
    1013	    1177	    1182	 1
    1014	    1177	    1183	 1
    1015	    1184	    1185	 1
    1016	    1184	    1186	 1
    1017	    1184	    1187	 1
    1018	    1184	    1188	 1
    1019	    1184	    1189	 1
    1020	    1184	    1190	 1
    1021	    1191	    1192	 1
    1022	    1191	    1193	 1
    1023	    1191	    1194	 1
    1024	    1191	    1195	 1
    1025	    1191	    1196	 1
    1026	    1191	    1197	 1
    1027	    1198	    1199	 1
    1028	    1198	    1200	 1
    1029	    1198	    1201	 1
    1030	    1198	    1202	 1
    1031	    1198	    1203	 1
    1032	    1198	    1204	 1
    1033	    1205	    1206	 1
    1034	    1205	    1207	 1
    1035	    1205	    1208	 1
    1036	    1205	    1209	 1
    1037	    1205	    1210	 1
    1038	    1205	    1211	 1
    1039	    1212	    1213	 1
    1040	    1212	    1214	 1
    1041	    1212	    1215	 1
    1042	    1212	    1216	 1
    1043	    1212	    1217	 1
    1044	    1212	    1218	 1
    1045	    1219	    1220	 1
    1046	    1219	    1221	 1
    1047	    1219	    1222	 1
    1048	    1219	    1223	 1
    1049	    1219	    1224	 1
    1050	    1219	    1225	 1
    1051	    1226	    1227	 1
    1052	    1226	    1228	 1
    1053	    1226	    1229	 1
    1054	    1226	    1230	 1
    1055	    1226	    1231	 1
    1056	    1226	    1232	 1
    1057	    1233	    1234	 1
    1058	    1233	    1235	 1
    1059	    1233	    1236	 1
    1060	    1233	    1237	 1
    1061	    1233	    1238	 1
    1062	    1233	    1239	 1
    1063	    1240	    1241	 1
    1064	    1240	    1242	 1
    1065	    1240	    1243	 1
    1066	    1240	    1244	 1
    1067	    1240	    1245	 1
    1068	    1240	    1246	 1
    1069	    1247	    1248	 1
    1070	    1247	    1249	 1
    1071	    1247	    1250	 1
    1072	    1247	    1251	 1
    1073	    1247	    1252	 1
    1074	    1247	    1253	 1
    1075	    1254	    1255	 1
    1076	    1254	    1256	 1
    1077	    1254	    1257	 1
    1078	    1254	    1258	 1
    1079	    1254	    1259	 1
    1080	    1254	    1260	 1
    1081	    1261	    1262	 1
    1082	    1261	    1263	 1
    1083	    1261	    1264	 1
    1084	    1261	    1265	 1
    1085	    1261	    1266	 1
    1086	    1261	    1267	 1
    1087	    1268	    1269	 1
    1088	    1268	    1270	 1
    1089	    1268	    1271	 1
    1090	    1268	    1272	 1
    1091	    1268	    1273	 1
    1092	    1268	    1274	 1
    1093	    1275	    1276	 1
    1094	    1275	    1277	 1
    1095	    1275	    1278	 1
    1096	    1275	    1279	 1
    1097	    1275	    1280	 1
    1098	    1275	    1281	 1
    1099	    1282	    1283	 1
    1100	    1282	    1284	 1
    1101	    1282	    1285	 1
    1102	    1282	    1286	 1
    1103	    1282	    1287	 1
    1104	    1282	    1288	 1
    1105	    1289	    1290	 1
    1106	    1289	    1291	 1
    1107	    1289	    1292	 1
    1108	    1289	    1293	 1
    1109	    1289	    1294	 1
    1110	    1289	    1295	 1
    1111	    1296	    1297	 1
    1112	    1296	    1298	 1
    1113	    1296	    1299	 1
    1114	    1296	    1300	 1
    1115	    1296	    1301	 1
    1116	    1296	    1302	 1
    1117	    1303	    1304	 1
    1118	    1303	    1305	 1
    1119	    1303	    1306	 1
    1120	    1303	    1307	 1
    1121	    1303	    1308	 1
    1122	    1303	    1309	 1
    1123	    1310	    1311	 1
    1124	    1310	    1312	 1
    1125	    1310	    1313	 1
    1126	    1310	    1314	 1
    1127	    1310	    1315	 1
    1128	    1310	    1316	 1
    1129	    1317	    1318	 1
    1130	    1317	    1319	 1
    1131	    1317	    1320	 1
    1132	    1317	    1321	 1
    1133	    1317	    1322	 1
    1134	    1317	    1323	 1
    1135	    1324	    1325	 1
    1136	    1324	    1326	 1
    1137	    1324	    1327	 1
    1138	    1324	    1328	 1
    1139	    1324	    1329	 1
    1140	    1324	    1330	 1
    1141	    1331	    1332	 1
    1142	    1331	    1333	 1
    1143	    1331	    1334	 1
    1144	    1331	    1335	 1
    1145	    1331	    1336	 1
    1146	    1331	    1337	 1
    1147	    1338	    1339	 1
    1148	    1338	    1340	 1
    1149	    1338	    1341	 1
    1150	    1338	    1342	 1
    1151	    1338	    1343	 1
    1152	    1338	    1344	 1
    1153	    1345	    1346	 1
    1154	    1345	    1347	 1
    1155	    1345	    1348	 1
    1156	    1345	    1349	 1
    1157	    1345	    1350	 1
    1158	    1345	    1351	 1
    1159	    1352	    1353	 1
    1160	    1352	    1354	 1
    1161	    1352	    1355	 1
    1162	    1352	    1356	 1
    1163	    1352	    1357	 1
    1164	    1352	    1358	 1
    1165	    1359	    1360	 1
    1166	    1359	    1361	 1
    1167	    1359	    1362	 1
    1168	    1359	    1363	 1
    1169	    1359	    1364	 1
    1170	    1359	    1365	 1
    1171	    1366	    1367	 1
    1172	    1366	    1368	 1
    1173	    1366	    1369	 1
    1174	    1366	    1370	 1
    1175	    1366	    1371	 1
    1176	    1366	    1372	 1
    1177	    1373	    1374	 1
    1178	    1373	    1375	 1
    1179	    1373	    1376	 1
    1180	    1373	    1377	 1
    1181	    1373	    1378	 1
    1182	    1373	    1379	 1
    1183	    1380	    1381	 1
    1184	    1380	    1382	 1
    1185	    1380	    1383	 1
    1186	    1380	    1384	 1
    1187	    1380	    1385	 1
    1188	    1380	    1386	 1
    1189	    1387	    1388	 1
    1190	    1387	    1389	 1
    1191	    1387	    1390	 1
    1192	    1387	    1391	 1
    1193	    1387	    1392	 1
    1194	    1387	    1393	 1
    1195	    1394	    1395	 1
    1196	    1394	    1396	 1
    1197	    1394	    1397	 1
    1198	    1394	    1398	 1
    1199	    1394	    1399	 1
    1200	    1394	    1400	 1
    1201	    1401	    1402	 1
    1202	    1401	    1403	 1
    1203	    1401	    1404	 1
    1204	    1401	    1405	 1
    1205	    1401	    1406	 1
    1206	    1401	    1407	 1
    1207	    1408	    1409	 1
    1208	    1408	    1410	 1
    1209	    1408	    1411	 1
    1210	    1408	    1412	 1
    1211	    1408	    1413	 1
    1212	    1408	    1414	 1
    1213	    1415	    1416	 1
    1214	    1415	    1417	 1
    1215	    1415	    1418	 1
    1216	    1415	    1419	 1
    1217	    1415	    1420	 1
    1218	    1415	    1421	 1
    1219	    1422	    1423	 1
    1220	    1422	    1424	 1
    1221	    1422	    1425	 1
    1222	    1422	    1426	 1
    1223	    1422	    1427	 1
    1224	    1422	    1428	 1
    1225	    1429	    1430	 1
    1226	    1429	    1431	 1
    1227	    1429	    1432	 1
    1228	    1429	    1433	 1
    1229	    1429	    1434	 1
    1230	    1429	    1435	 1
    1231	    1436	    1437	 1
    1232	    1436	    1438	 1
    1233	    1436	    1439	 1
    1234	    1436	    1440	 1
    1235	    1436	    1441	 1
    1236	    1436	    1442	 1
    1237	    1443	    1444	 1
    1238	    1443	    1445	 1
    1239	    1443	    1446	 1
    1240	    1443	    1447	 1
    1241	    1443	    1448	 1
    1242	    1443	    1449	 1
    1243	    1450	    1451	 1
    1244	    1450	    1452	 1
    1245	    1450	    1453	 1
    1246	    1450	    1454	 1
    1247	    1450	    1455	 1
    1248	    1450	    1456	 1
    1249	    1457	    1458	 1
    1250	    1457	    1459	 1
    1251	    1457	    1460	 1
    1252	    1457	    1461	 1
    1253	    1457	    1462	 1
    1254	    1457	    1463	 1
    1255	    1464	    1465	 1
    1256	    1464	    1466	 1
    1257	    1464	    1467	 1
    1258	    1464	    1468	 1
    1259	    1464	    1469	 1
    1260	    1464	    1470	 1
    1261	    1471	    1472	 1
    1262	    1471	    1473	 1
    1263	    1471	    1474	 1
    1264	    1471	    1475	 1
    1265	    1471	    1476	 1
    1266	    1471	    1477	 1
    1267	    1478	    1479	 1
    1268	    1478	    1480	 1
    1269	    1478	    1481	 1
    1270	    1478	    1482	 1
    1271	    1478	    1483	 1
    1272	    1478	    1484	 1
    1273	    1485	    1486	 1
    1274	    1485	    1487	 1
    1275	    1485	    1488	 1
    1276	    1485	    1489	 1
    1277	    1485	    1490	 1
    1278	    1485	    1491	 1
    1279	    1492	    1493	 1
    1280	    1492	    1494	 1
    1281	    1492	    1495	 1
    1282	    1492	    1496	 1
    1283	    1492	    1497	 1
    1284	    1492	    1498	 1
    1285	    1499	    1500	 1
    1286	    1499	    1501	 1
    1287	    1499	    1502	 1
    1288	    1499	    1503	 1
    1289	    1499	    1504	 1
    1290	    1499	    1505	 1
    1291	    1506	    1507	 1
    1292	    1506	    1508	 1
    1293	    1506	    1509	 1
    1294	    1506	    1510	 1
    1295	    1506	    1511	 1
    1296	    1506	    1512	 1
    1297	    1513	    1514	 1
    1298	    1513	    1515	 1
    1299	    1513	    1516	 1
    1300	    1513	    1517	 1
    1301	    1513	    1518	 1
    1302	    1513	    1519	 1
    1303	    1520	    1521	 1
    1304	    1520	    1522	 1
    1305	    1520	    1523	 1
    1306	    1520	    1524	 1
    1307	    1520	    1525	 1
    1308	    1520	    1526	 1
    1309	    1527	    1528	 1
    1310	    1527	    1529	 1
    1311	    1527	    1530	 1
    1312	    1527	    1531	 1
    1313	    1527	    1532	 1
    1314	    1527	    1533	 1
    1315	    1534	    1535	 1
    1316	    1534	    1536	 1
    1317	    1534	    1537	 1
    1318	    1534	    1538	 1
    1319	    1534	    1539	 1
    1320	    1534	    1540	 1
    1321	    1541	    1542	 1
    1322	    1541	    1543	 1
    1323	    1541	    1544	 1
    1324	    1541	    1545	 1
    1325	    1541	    1546	 1
    1326	    1541	    1547	 1
    1327	    1548	    1549	 1
    1328	    1548	    1550	 1
    1329	    1548	    1551	 1
    1330	    1548	    1552	 1
    1331	    1548	    1553	 1
    1332	    1548	    1554	 1
    1333	    1555	    1556	 1
    1334	    1555	    1557	 1
    1335	    1555	    1558	 1
    1336	    1555	    1559	 1
    1337	    1555	    1560	 1
    1338	    1555	    1561	 1
    1339	    1562	    1563	 1
    1340	    1562	    1564	 1
    1341	    1562	    1565	 1
    1342	    1562	    1566	 1
    1343	    1562	    1567	 1
    1344	    1562	    1568	 1
    1345	    1569	    1570	 1
    1346	    1569	    1571	 1
    1347	    1569	    1572	 1
    1348	    1569	    1573	 1
    1349	    1569	    1574	 1
    1350	    1569	    1575	 1
    1351	    1576	    1577	 1
    1352	    1576	    1578	 1
    1353	    1576	    1579	 1
    1354	    1576	    1580	 1
    1355	    1576	    1581	 1
    1356	    1576	    1582	 1
    1357	    1583	    1584	 1
    1358	    1583	    1585	 1
    1359	    1583	    1586	 1
    1360	    1583	    1587	 1
    1361	    1583	    1588	 1
    1362	    1583	    1589	 1
    1363	    1590	    1591	 1
    1364	    1590	    1592	 1
    1365	    1590	    1593	 1
    1366	    1590	    1594	 1
    1367	    1590	    1595	 1
    1368	    1590	    1596	 1
    1369	    1597	    1598	 1
    1370	    1597	    1599	 1
    1371	    1597	    1600	 1
    1372	    1597	    1601	 1
    1373	    1597	    1602	 1
    1374	    1597	    1603	 1
    1375	    1604	    1605	 1
    1376	    1604	    1606	 1
    1377	    1604	    1607	 1
    1378	    1604	    1608	 1
    1379	    1604	    1609	 1
    1380	    1604	    1610	 1
    1381	    1611	    1612	 1
    1382	    1611	    1613	 1
    1383	    1611	    1614	 1
    1384	    1611	    1615	 1
    1385	    1611	    1616	 1
    1386	    1611	    1617	 1
    1387	    1618	    1619	 1
    1388	    1618	    1620	 1
    1389	    1618	    1621	 1
    1390	    1618	    1622	 1
    1391	    1618	    1623	 1
    1392	    1618	    1624	 1
    1393	    1625	    1626	 1
    1394	    1625	    1627	 1
    1395	    1625	    1628	 1
    1396	    1625	    1629	 1
    1397	    1625	    1630	 1
    1398	    1625	    1631	 1
    1399	    1632	    1633	 1
    1400	    1632	    1634	 1
    1401	    1632	    1635	 1
    1402	    1632	    1636	 1
    1403	    1632	    1637	 1
    1404	    1632	    1638	 1
    1405	    1639	    1640	 1
    1406	    1639	    1641	 1
    1407	    1639	    1642	 1
    1408	    1639	    1643	 1
    1409	    1639	    1644	 1
    1410	    1639	    1645	 1
    1411	    1646	    1647	 1
    1412	    1646	    1648	 1
    1413	    1646	    1649	 1
    1414	    1646	    1650	 1
    1415	    1646	    1651	 1
    1416	    1646	    1652	 1
    1417	    1653	    1654	 1
    1418	    1653	    1655	 1
    1419	    1653	    1656	 1
    1420	    1653	    1657	 1
    1421	    1653	    1658	 1
    1422	    1653	    1659	 1
    1423	    1660	    1661	 1
    1424	    1660	    1662	 1
    1425	    1660	    1663	 1
    1426	    1660	    1664	 1
    1427	    1660	    1665	 1
    1428	    1660	    1666	 1
    1429	    1667	    1668	 1
    1430	    1667	    1669	 1
    1431	    1667	    1670	 1
    1432	    1667	    1671	 1
    1433	    1667	    1672	 1
    1434	    1667	    1673	 1
    1435	    1674	    1675	 1
    1436	    1674	    1676	 1
    1437	    1674	    1677	 1
    1438	    1674	    1678	 1
    1439	    1674	    1679	 1
    1440	    1674	    1680	 1
    1441	    1681	    1682	 1
    1442	    1681	    1683	 1
    1443	    1681	    1684	 1
    1444	    1681	    1685	 1
    1445	    1681	    1686	 1
    1446	    1681	    1687	 1
    1447	    1688	    1689	 1
    1448	    1688	    1690	 1
    1449	    1688	    1691	 1
    1450	    1688	    1692	 1
    1451	    1688	    1693	 1
    1452	    1688	    1694	 1
    1453	    1695	    1696	 1
    1454	    1695	    1697	 1
    1455	    1695	    1698	 1
    1456	    1695	    1699	 1
    1457	    1695	    1700	 1
    1458	    1695	    1701	 1
    1459	    1702	    1703	 1
    1460	    1702	    1704	 1
    1461	    1702	    1705	 1
    1462	    1702	    1706	 1
    1463	    1702	    1707	 1
    1464	    1702	    1708	 1
    1465	    1709	    1710	 1
    1466	    1709	    1711	 1
    1467	    1709	    1712	 1
    1468	    1709	    1713	 1
    1469	    1709	    1714	 1
    1470	    1709	    1715	 1
    1471	    1716	    1717	 1
    1472	    1716	    1718	 1
    1473	    1716	    1719	 1
    1474	    1716	    1720	 1
    1475	    1716	    1721	 1
    1476	    1716	    1722	 1
    1477	    1723	    1724	 1
    1478	    1723	    1725	 1
    1479	    1723	    1726	 1
    1480	    1723	    1727	 1
    1481	    1723	    1728	 1
    1482	    1723	    1729	 1
    1483	    1730	    1731	 1
    1484	    1730	    1732	 1
    1485	    1730	    1733	 1
    1486	    1730	    1734	 1
    1487	    1730	    1735	 1
    1488	    1730	    1736	 1
    1489	    1737	    1738	 1
    1490	    1737	    1739	 1
    1491	    1737	    1740	 1
    1492	    1737	    1741	 1
    1493	    1737	    1742	 1
    1494	    1737	    1743	 1
    1495	    1744	    1745	 1
    1496	    1744	    1746	 1
    1497	    1744	    1747	 1
    1498	    1744	    1748	 1
    1499	    1744	    1749	 1
    1500	    1744	    1750	 1
    1501	    1751	    1752	 1
    1502	    1751	    1753	 1
    1503	    1751	    1754	 1
    1504	    1751	    1755	 1
    1505	    1751	    1756	 1
    1506	    1751	    1757	 1
    1507	    1758	    1759	 1
    1508	    1758	    1760	 1
    1509	    1758	    1761	 1
    1510	    1758	    1762	 1
    1511	    1758	    1763	 1
    1512	    1758	    1764	 1
    1513	    1765	    1766	 1
    1514	    1765	    1767	 1
    1515	    1765	    1768	 1
    1516	    1765	    1769	 1
    1517	    1765	    1770	 1
    1518	    1765	    1771	 1
    1519	    1772	    1773	 1
    1520	    1772	    1774	 1
    1521	    1772	    1775	 1
    1522	    1772	    1776	 1
    1523	    1772	    1777	 1
    1524	    1772	    1778	 1
    1525	    1779	    1780	 1
    1526	    1779	    1781	 1
    1527	    1779	    1782	 1
    1528	    1779	    1783	 1
    1529	    1779	    1784	 1
    1530	    1779	    1785	 1
    1531	    1786	    1787	 1
    1532	    1786	    1788	 1
    1533	    1786	    1789	 1
    1534	    1786	    1790	 1
    1535	    1786	    1791	 1
    1536	    1786	    1792	 1
    1537	    1793	    1794	 1
    1538	    1793	    1795	 1
    1539	    1793	    1796	 1
    1540	    1793	    1797	 1
    1541	    1793	    1798	 1
    1542	    1793	    1799	 1
    1543	    1800	    1801	 1
    1544	    1800	    1802	 1
    1545	    1800	    1803	 1
    1546	    1800	    1804	 1
    1547	    1800	    1805	 1
    1548	    1800	    1806	 1
    1549	    1807	    1808	 1
    1550	    1807	    1809	 1
    1551	    1807	    1810	 1
    1552	    1807	    1811	 1
    1553	    1807	    1812	 1
    1554	    1807	    1813	 1
    1555	    1814	    1815	 1
    1556	    1814	    1816	 1
    1557	    1814	    1817	 1
    1558	    1814	    1818	 1
    1559	    1814	    1819	 1
    1560	    1814	    1820	 1
    1561	    1821	    1822	 1
    1562	    1821	    1823	 1
    1563	    1821	    1824	 1
    1564	    1821	    1825	 1
    1565	    1821	    1826	 1
    1566	    1821	    1827	 1
    1567	    1828	    1829	 1
    1568	    1828	    1830	 1
    1569	    1828	    1831	 1
    1570	    1828	    1832	 1
    1571	    1828	    1833	 1
    1572	    1828	    1834	 1
    1573	    1835	    1836	 1
    1574	    1835	    1837	 1
    1575	    1835	    1838	 1
    1576	    1835	    1839	 1
    1577	    1835	    1840	 1
    1578	    1835	    1841	 1
    1579	    1842	    1843	 1
    1580	    1842	    1844	 1
    1581	    1842	    1845	 1
    1582	    1842	    1846	 1
    1583	    1842	    1847	 1
    1584	    1842	    1848	 1
    1585	    1849	    1850	 1
    1586	    1849	    1851	 1
    1587	    1849	    1852	 1
    1588	    1849	    1853	 1
    1589	    1849	    1854	 1
    1590	    1849	    1855	 1
    1591	    1856	    1857	 1
    1592	    1856	    1858	 1
    1593	    1856	    1859	 1
    1594	    1856	    1860	 1
    1595	    1856	    1861	 1
    1596	    1856	    1862	 1
    1597	    1863	    1864	 1
    1598	    1863	    1865	 1
    1599	    1863	    1866	 1
    1600	    1863	    1867	 1
    1601	    1863	    1868	 1
    1602	    1863	    1869	 1
    1603	    1870	    1871	 1
    1604	    1870	    1872	 1
    1605	    1870	    1873	 1
    1606	    1870	    1874	 1
    1607	    1870	    1875	 1
    1608	    1870	    1876	 1
    1609	    1877	    1878	 1
    1610	    1877	    1879	 1
    1611	    1877	    1880	 1
    1612	    1877	    1881	 1
    1613	    1877	    1882	 1
    1614	    1877	    1883	 1
    1615	    1884	    1885	 1
    1616	    1884	    1886	 1
    1617	    1884	    1887	 1
    1618	    1884	    1888	 1
    1619	    1884	    1889	 1
    1620	    1884	    1890	 1
    1621	    1891	    1892	 1
    1622	    1891	    1893	 1
    1623	    1891	    1894	 1
    1624	    1891	    1895	 1
    1625	    1891	    1896	 1
    1626	    1891	    1897	 1
    1627	    1898	    1899	 1
    1628	    1898	    1900	 1
    1629	    1898	    1901	 1
    1630	    1898	    1902	 1
    1631	    1898	    1903	 1
    1632	    1898	    1904	 1
    1633	    1905	    1906	 1
    1634	    1905	    1907	 1
    1635	    1905	    1908	 1
    1636	    1905	    1909	 1
    1637	    1905	    1910	 1
    1638	    1905	    1911	 1
    1639	    1912	    1913	 1
    1640	    1912	    1914	 1
    1641	    1912	    1915	 1
    1642	    1912	    1916	 1
    1643	    1912	    1917	 1
    1644	    1912	    1918	 1
    1645	    1919	    1920	 1
    1646	    1919	    1921	 1
    1647	    1919	    1922	 1
    1648	    1919	    1923	 1
    1649	    1919	    1924	 1
    1650	    1919	    1925	 1
    1651	    1926	    1927	 1
    1652	    1926	    1928	 1
    1653	    1926	    1929	 1
    1654	    1926	    1930	 1
    1655	    1926	    1931	 1
    1656	    1926	    1932	 1
    1657	    1933	    1934	 1
    1658	    1933	    1935	 1
    1659	    1933	    1936	 1
    1660	    1933	    1937	 1
    1661	    1933	    1938	 1
    1662	    1933	    1939	 1
    1663	    1940	    1941	 1
    1664	    1940	    1942	 1
    1665	    1940	    1943	 1
    1666	    1940	    1944	 1
    1667	    1940	    1945	 1
    1668	    1940	    1946	 1
    1669	    1947	    1948	 1
    1670	    1947	    1949	 1
    1671	    1947	    1950	 1
    1672	    1947	    1951	 1
    1673	    1947	    1952	 1
    1674	    1947	    1953	 1
    1675	    1954	    1955	 1
    1676	    1954	    1956	 1
    1677	    1954	    1957	 1
    1678	    1954	    1958	 1
    1679	    1954	    1959	 1
    1680	    1954	    1960	 1
    1681	    1961	    1962	 1
    1682	    1961	    1963	 1
    1683	    1961	    1964	 1
    1684	    1961	    1965	 1
    1685	    1961	    1966	 1
    1686	    1961	    1967	 1
    1687	    1968	    1969	 1
    1688	    1968	    1970	 1
    1689	    1968	    1971	 1
    1690	    1968	    1972	 1
    1691	    1968	    1973	 1
    1692	    1968	    1974	 1
    1693	    1975	    1976	 1
    1694	    1975	    1977	 1
    1695	    1975	    1978	 1
    1696	    1975	    1979	 1
    1697	    1975	    1980	 1
    1698	    1975	    1981	 1
    1699	    1982	    1983	 1
    1700	    1982	    1984	 1
    1701	    1982	    1985	 1
    1702	    1982	    1986	 1
    1703	    1982	    1987	 1
    1704	    1982	    1988	 1
    1705	    1989	    1990	 1
    1706	    1989	    1991	 1
    1707	    1989	    1992	 1
    1708	    1989	    1993	 1
    1709	    1989	    1994	 1
    1710	    1989	    1995	 1
    1711	    1996	    1997	 1
    1712	    1996	    1998	 1
    1713	    1996	    1999	 1
    1714	    1996	    2000	 1
    1715	    1996	    2001	 1
    1716	    1996	    2002	 1
    1717	    2003	    2004	 1
    1718	    2003	    2005	 1
    1719	    2003	    2006	 1
    1720	    2003	    2007	 1
    1721	    2003	    2008	 1
    1722	    2003	    2009	 1
    1723	    2010	    2011	 1
    1724	    2010	    2012	 1
    1725	    2010	    2013	 1
    1726	    2010	    2014	 1
    1727	    2010	    2015	 1
    1728	    2010	    2016	 1
    1729	    2017	    2018	 1
    1730	    2017	    2019	 1
    1731	    2017	    2020	 1
    1732	    2017	    2021	 1
    1733	    2017	    2022	 1
    1734	    2017	    2023	 1
    1735	    2024	    2025	 1
    1736	    2024	    2026	 1
    1737	    2024	    2027	 1
    1738	    2024	    2028	 1
    1739	    2024	    2029	 1
    1740	    2024	    2030	 1
    1741	    2031	    2032	 1
    1742	    2031	    2033	 1
    1743	    2031	    2034	 1
    1744	    2031	    2035	 1
    1745	    2031	    2036	 1
    1746	    2031	    2037	 1
    1747	    2038	    2039	 1
    1748	    2038	    2040	 1
    1749	    2038	    2041	 1
    1750	    2038	    2042	 1
    1751	    2038	    2043	 1
    1752	    2038	    2044	 1
    1753	    2045	    2046	 1
    1754	    2045	    2047	 1
    1755	    2045	    2048	 1
    1756	    2045	    2049	 1
    1757	    2045	    2050	 1
    1758	    2045	    2051	 1
    1759	    2052	    2053	 1
    1760	    2052	    2054	 1
    1761	    2052	    2055	 1
    1762	    2052	    2056	 1
    1763	    2052	    2057	 1
    1764	    2052	    2058	 1
    1765	    2059	    2060	 1
    1766	    2059	    2061	 1
    1767	    2059	    2062	 1
    1768	    2059	    2063	 1
    1769	    2059	    2064	 1
    1770	    2059	    2065	 1
    1771	    2066	    2067	 1
    1772	    2066	    2068	 1
    1773	    2066	    2069	 1
    1774	    2066	    2070	 1
    1775	    2066	    2071	 1
    1776	    2066	    2072	 1
    1777	    2073	    2074	 1
    1778	    2073	    2075	 1
    1779	    2073	    2076	 1
    1780	    2073	    2077	 1
    1781	    2073	    2078	 1
    1782	    2073	    2079	 1
    1783	    2080	    2081	 1
    1784	    2080	    2082	 1
    1785	    2080	    2083	 1
    1786	    2080	    2084	 1
    1787	    2080	    2085	 1
    1788	    2080	    2086	 1
    1789	    2087	    2088	 1
    1790	    2087	    2089	 1
    1791	    2087	    2090	 1
    1792	    2087	    2091	 1
    1793	    2087	    2092	 1
    1794	    2087	    2093	 1
    1795	    2094	    2095	 1
    1796	    2094	    2096	 1
    1797	    2094	    2097	 1
    1798	    2094	    2098	 1
    1799	    2094	    2099	 1
    1800	    2094	    2100	 1
    1801	    2101	    2102	 1
    1802	    2101	    2103	 1
    1803	    2101	    2104	 1
    1804	    2101	    2105	 1
    1805	    2101	    2106	 1
    1806	    2101	    2107	 1
    1807	    2108	    2109	 1
    1808	    2108	    2110	 1
    1809	    2108	    2111	 1
    1810	    2108	    2112	 1
    1811	    2108	    2113	 1
    1812	    2108	    2114	 1
    1813	    2115	    2116	 1
    1814	    2115	    2117	 1
    1815	    2115	    2118	 1
    1816	    2115	    2119	 1
    1817	    2115	    2120	 1
    1818	    2115	    2121	 1
    1819	    2122	    2123	 1
    1820	    2122	    2124	 1
    1821	    2122	    2125	 1
    1822	    2122	    2126	 1
    1823	    2122	    2127	 1
    1824	    2122	    2128	 1
    1825	    2129	    2130	 1
    1826	    2129	    2131	 1
    1827	    2129	    2132	 1
    1828	    2129	    2133	 1
    1829	    2129	    2134	 1
    1830	    2129	    2135	 1
    1831	    2136	    2137	 1
    1832	    2136	    2138	 1
    1833	    2136	    2139	 1
    1834	    2136	    2140	 1
    1835	    2136	    2141	 1
    1836	    2136	    2142	 1
    1837	    2143	    2144	 1
    1838	    2143	    2145	 1
    1839	    2143	    2146	 1
    1840	    2143	    2147	 1
    1841	    2143	    2148	 1
    1842	    2143	    2149	 1
    1843	    2150	    2151	 1
    1844	    2150	    2152	 1
    1845	    2150	    2153	 1
    1846	    2150	    2154	 1
    1847	    2150	    2155	 1
    1848	    2150	    2156	 1
    1849	    2157	    2158	 1
    1850	    2157	    2159	 1
    1851	    2157	    2160	 1
    1852	    2157	    2161	 1
    1853	    2157	    2162	 1
    1854	    2157	    2163	 1
    1855	    2164	    2165	 1
    1856	    2164	    2166	 1
    1857	    2164	    2167	 1
    1858	    2164	    2168	 1
    1859	    2164	    2169	 1
    1860	    2164	    2170	 1
    1861	    2171	    2172	 1
    1862	    2171	    2173	 1
    1863	    2171	    2174	 1
    1864	    2171	    2175	 1
    1865	    2171	    2176	 1
    1866	    2171	    2177	 1
    1867	    2178	    2179	 1
    1868	    2178	    2180	 1
    1869	    2178	    2181	 1
    1870	    2178	    2182	 1
    1871	    2178	    2183	 1
    1872	    2178	    2184	 1
    1873	    2185	    2186	 1
    1874	    2185	    2187	 1
    1875	    2185	    2188	 1
    1876	    2185	    2189	 1
    1877	    2185	    2190	 1
    1878	    2185	    2191	 1
    1879	    2192	    2193	 1
    1880	    2192	    2194	 1
    1881	    2192	    2195	 1
    1882	    2192	    2196	 1
    1883	    2192	    2197	 1
    1884	    2192	    2198	 1
    1885	    2199	    2200	 1
    1886	    2199	    2201	 1
    1887	    2199	    2202	 1
    1888	    2199	    2203	 1
    1889	    2199	    2204	 1
    1890	    2199	    2205	 1
    1891	    2206	    2207	 1
    1892	    2206	    2208	 1
    1893	    2206	    2209	 1
    1894	    2206	    2210	 1
    1895	    2206	    2211	 1
    1896	    2206	    2212	 1
    1897	    2213	    2214	 1
    1898	    2213	    2215	 1
    1899	    2213	    2216	 1
    1900	    2213	    2217	 1
    1901	    2213	    2218	 1
    1902	    2213	    2219	 1
    1903	    2220	    2221	 1
    1904	    2220	    2222	 1
    1905	    2220	    2223	 1
    1906	    2220	    2224	 1
    1907	    2220	    2225	 1
    1908	    2220	    2226	 1
    1909	    2227	    2228	 1
    1910	    2227	    2229	 1
    1911	    2227	    2230	 1
    1912	    2227	    2231	 1
    1913	    2227	    2232	 1
    1914	    2227	    2233	 1
    1915	    2234	    2235	 1
    1916	    2234	    2236	 1
    1917	    2234	    2237	 1
    1918	    2234	    2238	 1
    1919	    2234	    2239	 1
    1920	    2234	    2240	 1
    1921	    2241	    2242	 1
    1922	    2241	    2243	 1
    1923	    2241	    2244	 1
    1924	    2241	    2245	 1
    1925	    2241	    2246	 1
    1926	    2241	    2247	 1
    1927	    2248	    2249	 1
    1928	    2248	    2250	 1
    1929	    2248	    2251	 1
    1930	    2248	    2252	 1
    1931	    2248	    2253	 1
    1932	    2248	    2254	 1
    1933	    2255	    2256	 1
    1934	    2255	    2257	 1
    1935	    2255	    2258	 1
    1936	    2255	    2259	 1
    1937	    2255	    2260	 1
    1938	    2255	    2261	 1
    1939	    2262	    2263	 1
    1940	    2262	    2264	 1
    1941	    2262	    2265	 1
    1942	    2262	    2266	 1
    1943	    2262	    2267	 1
    1944	    2262	    2268	 1
    1945	    2269	    2270	 1
    1946	    2269	    2271	 1
    1947	    2269	    2272	 1
    1948	    2269	    2273	 1
    1949	    2269	    2274	 1
    1950	    2269	    2275	 1
    1951	    2276	    2277	 1
    1952	    2276	    2278	 1
    1953	    2276	    2279	 1
    1954	    2276	    2280	 1
    1955	    2276	    2281	 1
    1956	    2276	    2282	 1
    1957	    2283	    2284	 1
    1958	    2283	    2285	 1
    1959	    2283	    2286	 1
    1960	    2283	    2287	 1
    1961	    2283	    2288	 1
    1962	    2283	    2289	 1
    1963	    2290	    2291	 1
    1964	    2290	    2292	 1
    1965	    2290	    2293	 1
    1966	    2290	    2294	 1
    1967	    2290	    2295	 1
    1968	    2290	    2296	 1
    1969	    2297	    2298	 1
    1970	    2297	    2299	 1
    1971	    2297	    2300	 1
    1972	    2297	    2301	 1
    1973	    2297	    2302	 1
    1974	    2297	    2303	 1
    1975	    2304	    2305	 1
    1976	    2304	    2306	 1
    1977	    2304	    2307	 1
    1978	    2304	    2308	 1
    1979	    2304	    2309	 1
    1980	    2304	    2310	 1
    1981	    2311	    2312	 1
    1982	    2311	    2313	 1
    1983	    2311	    2314	 1
    1984	    2311	    2315	 1
    1985	    2311	    2316	 1
    1986	    2311	    2317	 1
    1987	    2318	    2319	 1
    1988	    2318	    2320	 1
    1989	    2318	    2321	 1
    1990	    2318	    2322	 1
    1991	    2318	    2323	 1
    1992	    2318	    2324	 1
    1993	    2325	    2326	 1
    1994	    2325	    2327	 1
    1995	    2325	    2328	 1
    1996	    2325	    2329	 1
    1997	    2325	    2330	 1
    1998	    2325	    2331	 1
    1999	    2332	    2333	 1
    2000	    2332	    2334	 1
    2001	    2332	    2335	 1
    2002	    2332	    2336	 1
    2003	    2332	    2337	 1
    2004	    2332	    2338	 1
    2005	    2339	    2340	 1
    2006	    2339	    2341	 1
    2007	    2339	    2342	 1
    2008	    2339	    2343	 1
    2009	    2339	    2344	 1
    2010	    2339	    2345	 1
    2011	    2346	    2347	 1
    2012	    2346	    2348	 1
    2013	    2346	    2349	 1
    2014	    2346	    2350	 1
    2015	    2346	    2351	 1
    2016	    2346	    2352	 1
    2017	    2353	    2354	 1
    2018	    2353	    2355	 1
    2019	    2353	    2356	 1
    2020	    2353	    2357	 1
    2021	    2353	    2358	 1
    2022	    2353	    2359	 1
    2023	    2360	    2361	 1
    2024	    2360	    2362	 1
    2025	    2360	    2363	 1
    2026	    2360	    2364	 1
    2027	    2360	    2365	 1
    2028	    2360	    2366	 1
    2029	    2367	    2368	 1
    2030	    2367	    2369	 1
    2031	    2367	    2370	 1
    2032	    2367	    2371	 1
    2033	    2367	    2372	 1
    2034	    2367	    2373	 1
    2035	    2374	    2375	 1
    2036	    2374	    2376	 1
    2037	    2374	    2377	 1
    2038	    2374	    2378	 1
    2039	    2374	    2379	 1
    2040	    2374	    2380	 1
    2041	    2381	    2382	 1
    2042	    2381	    2383	 1
    2043	    2381	    2384	 1
    2044	    2381	    2385	 1
    2045	    2381	    2386	 1
    2046	    2381	    2387	 1
    2047	    2388	    2389	 1
    2048	    2388	    2390	 1
    2049	    2388	    2391	 1
    2050	    2388	    2392	 1
    2051	    2388	    2393	 1
    2052	    2388	    2394	 1
    2053	    2395	    2396	 1
    2054	    2395	    2397	 1
    2055	    2395	    2398	 1
    2056	    2395	    2399	 1
    2057	    2395	    2400	 1
    2058	    2395	    2401	 1
    2059	    2402	    2403	 1
    2060	    2402	    2404	 1
    2061	    2402	    2405	 1
    2062	    2402	    2406	 1
    2063	    2402	    2407	 1
    2064	    2402	    2408	 1
    2065	    2409	    2410	 1
    2066	    2409	    2411	 1
    2067	    2409	    2412	 1
    2068	    2409	    2413	 1
    2069	    2409	    2414	 1
    2070	    2409	    2415	 1
    2071	    2416	    2417	 1
    2072	    2416	    2418	 1
    2073	    2416	    2419	 1
    2074	    2416	    2420	 1
    2075	    2416	    2421	 1
    2076	    2416	    2422	 1
    2077	    2423	    2424	 1
    2078	    2423	    2425	 1
    2079	    2423	    2426	 1
    2080	    2423	    2427	 1
    2081	    2423	    2428	 1
    2082	    2423	    2429	 1
    2083	    2430	    2431	 1
    2084	    2430	    2432	 1
    2085	    2430	    2433	 1
    2086	    2430	    2434	 1
    2087	    2430	    2435	 1
    2088	    2430	    2436	 1
    2089	    2437	    2438	 1
    2090	    2437	    2439	 1
    2091	    2437	    2440	 1
    2092	    2437	    2441	 1
    2093	    2437	    2442	 1
    2094	    2437	    2443	 1
    2095	    2444	    2445	 1
    2096	    2444	    2446	 1
    2097	    2444	    2447	 1
    2098	    2444	    2448	 1
    2099	    2444	    2449	 1
    2100	    2444	    2450	 1
    2101	    2451	    2452	 1
    2102	    2451	    2453	 1
    2103	    2451	    2454	 1
    2104	    2451	    2455	 1
    2105	    2451	    2456	 1
    2106	    2451	    2457	 1
    2107	    2458	    2459	 1
    2108	    2458	    2460	 1
    2109	    2458	    2461	 1
    2110	    2458	    2462	 1
    2111	    2458	    2463	 1
    2112	    2458	    2464	 1
    2113	    2465	    2466	 1
    2114	    2465	    2467	 1
    2115	    2465	    2468	 1
    2116	    2465	    2469	 1
    2117	    2465	    2470	 1
    2118	    2465	    2471	 1
    2119	    2472	    2473	 1
    2120	    2472	    2474	 1
    2121	    2472	    2475	 1
    2122	    2472	    2476	 1
    2123	    2472	    2477	 1
    2124	    2472	    2478	 1
    2125	    2479	    2480	 1
    2126	    2479	    2481	 1
    2127	    2479	    2482	 1
    2128	    2479	    2483	 1
    2129	    2479	    2484	 1
    2130	    2479	    2485	 1
    2131	    2486	    2487	 1
    2132	    2486	    2488	 1
    2133	    2486	    2489	 1
    2134	    2486	    2490	 1
    2135	    2486	    2491	 1
    2136	    2486	    2492	 1
    2137	    2493	    2494	 1
    2138	    2493	    2495	 1
    2139	    2493	    2496	 1
    2140	    2493	    2497	 1
    2141	    2493	    2498	 1
    2142	    2493	    2499	 1
    2143	    2500	    2501	 1
    2144	    2500	    2502	 1
    2145	    2500	    2503	 1
    2146	    2500	    2504	 1
    2147	    2500	    2505	 1
    2148	    2500	    2506	 1
    2149	    2507	    2508	 1
    2150	    2507	    2509	 1
    2151	    2507	    2510	 1
    2152	    2507	    2511	 1
    2153	    2507	    2512	 1
    2154	    2507	    2513	 1
    2155	    2514	    2515	 1
    2156	    2514	    2516	 1
    2157	    2514	    2517	 1
    2158	    2514	    2518	 1
    2159	    2514	    2519	 1
    2160	    2514	    2520	 1
    2161	    2521	    2522	 1
    2162	    2521	    2523	 1
    2163	    2521	    2524	 1
    2164	    2521	    2525	 1
    2165	    2521	    2526	 1
    2166	    2521	    2527	 1
    2167	    2528	    2529	 1
    2168	    2528	    2530	 1
    2169	    2528	    2531	 1
    2170	    2528	    2532	 1
    2171	    2528	    2533	 1
    2172	    2528	    2534	 1
    2173	    2535	    2536	 1
    2174	    2535	    2537	 1
    2175	    2535	    2538	 1
    2176	    2535	    2539	 1
    2177	    2535	    2540	 1
    2178	    2535	    2541	 1
    2179	    2542	    2543	 1
    2180	    2542	    2544	 1
    2181	    2542	    2545	 1
    2182	    2542	    2546	 1
    2183	    2542	    2547	 1
    2184	    2542	    2548	 1
    2185	    2549	    2550	 1
    2186	    2549	    2551	 1
    2187	    2549	    2552	 1
    2188	    2549	    2553	 1
    2189	    2549	    2554	 1
    2190	    2549	    2555	 1
    2191	    2556	    2557	 1
    2192	    2556	    2558	 1
    2193	    2556	    2559	 1
    2194	    2556	    2560	 1
    2195	    2556	    2561	 1
    2196	    2556	    2562	 1
    2197	    2563	    2564	 1
    2198	    2563	    2565	 1
    2199	    2563	    2566	 1
    2200	    2563	    2567	 1
    2201	    2563	    2568	 1
    2202	    2563	    2569	 1
    2203	    2570	    2571	 1
    2204	    2570	    2572	 1
    2205	    2570	    2573	 1
    2206	    2570	    2574	 1
    2207	    2570	    2575	 1
    2208	    2570	    2576	 1
    2209	    2577	    2578	 1
    2210	    2577	    2579	 1
    2211	    2577	    2580	 1
    2212	    2577	    2581	 1
    2213	    2577	    2582	 1
    2214	    2577	    2583	 1
    2215	    2584	    2585	 1
    2216	    2584	    2586	 1
    2217	    2584	    2587	 1
    2218	    2584	    2588	 1
    2219	    2584	    2589	 1
    2220	    2584	    2590	 1
    2221	    2591	    2592	 1
    2222	    2591	    2593	 1
    2223	    2591	    2594	 1
    2224	    2591	    2595	 1
    2225	    2591	    2596	 1
    2226	    2591	    2597	 1
    2227	    2598	    2599	 1
    2228	    2598	    2600	 1
    2229	    2598	    2601	 1
    2230	    2598	    2602	 1
    2231	    2598	    2603	 1
    2232	    2598	    2604	 1
    2233	    2605	    2606	 1
    2234	    2605	    2607	 1
    2235	    2605	    2608	 1
    2236	    2605	    2609	 1
    2237	    2605	    2610	 1
    2238	    2605	    2611	 1
    2239	    2612	    2613	 1
    2240	    2612	    2614	 1
    2241	    2612	    2615	 1
    2242	    2612	    2616	 1
    2243	    2612	    2617	 1
    2244	    2612	    2618	 1
    2245	    2619	    2620	 1
    2246	    2619	    2621	 1
    2247	    2619	    2622	 1
    2248	    2619	    2623	 1
    2249	    2619	    2624	 1
    2250	    2619	    2625	 1
    2251	    2626	    2627	 1
    2252	    2626	    2628	 1
    2253	    2626	    2629	 1
    2254	    2626	    2630	 1
    2255	    2626	    2631	 1
    2256	    2626	    2632	 1
    2257	    2633	    2634	 1
    2258	    2633	    2635	 1
    2259	    2633	    2636	 1
    2260	    2633	    2637	 1
    2261	    2633	    2638	 1
    2262	    2633	    2639	 1
    2263	    2640	    2641	 1
    2264	    2640	    2642	 1
    2265	    2640	    2643	 1
    2266	    2640	    2644	 1
    2267	    2640	    2645	 1
    2268	    2640	    2646	 1
    2269	    2647	    2648	 1
    2270	    2647	    2649	 1
    2271	    2647	    2650	 1
    2272	    2647	    2651	 1
    2273	    2647	    2652	 1
    2274	    2647	    2653	 1
    2275	    2654	    2655	 1
    2276	    2654	    2656	 1
    2277	    2654	    2657	 1
    2278	    2654	    2658	 1
    2279	    2654	    2659	 1
    2280	    2654	    2660	 1
    2281	    2661	    2662	 1
    2282	    2661	    2663	 1
    2283	    2661	    2664	 1
    2284	    2661	    2665	 1
    2285	    2661	    2666	 1
    2286	    2661	    2667	 1
    2287	    2668	    2669	 1
    2288	    2668	    2670	 1
    2289	    2668	    2671	 1
    2290	    2668	    2672	 1
    2291	    2668	    2673	 1
    2292	    2668	    2674	 1
    2293	    2675	    2676	 1
    2294	    2675	    2677	 1
    2295	    2675	    2678	 1
    2296	    2675	    2679	 1
    2297	    2675	    2680	 1
    2298	    2675	    2681	 1
    2299	    2682	    2683	 1
    2300	    2682	    2684	 1
    2301	    2682	    2685	 1
    2302	    2682	    2686	 1
    2303	    2682	    2687	 1
    2304	    2682	    2688	 1
    2305	    2689	    2690	 1
    2306	    2689	    2691	 1
    2307	    2689	    2692	 1
    2308	    2689	    2693	 1
    2309	    2689	    2694	 1
    2310	    2689	    2695	 1
    2311	    2696	    2697	 1
    2312	    2696	    2698	 1
    2313	    2696	    2699	 1
    2314	    2696	    2700	 1
    2315	    2696	    2701	 1
    2316	    2696	    2702	 1
    2317	    2703	    2704	 1
    2318	    2703	    2705	 1
    2319	    2703	    2706	 1
    2320	    2703	    2707	 1
    2321	    2703	    2708	 1
    2322	    2703	    2709	 1
    2323	    2710	    2711	 1
    2324	    2710	    2712	 1
    2325	    2710	    2713	 1
    2326	    2710	    2714	 1
    2327	    2710	    2715	 1
    2328	    2710	    2716	 1
    2329	    2717	    2718	 1
    2330	    2717	    2719	 1
    2331	    2717	    2720	 1
    2332	    2717	    2721	 1
    2333	    2717	    2722	 1
    2334	    2717	    2723	 1
    2335	    2724	    2725	 1
    2336	    2724	    2726	 1
    2337	    2724	    2727	 1
    2338	    2724	    2728	 1
    2339	    2724	    2729	 1
    2340	    2724	    2730	 1
    2341	    2731	    2732	 1
    2342	    2731	    2733	 1
    2343	    2731	    2734	 1
    2344	    2731	    2735	 1
    2345	    2731	    2736	 1
    2346	    2731	    2737	 1
    2347	    2738	    2739	 1
    2348	    2738	    2740	 1
    2349	    2738	    2741	 1
    2350	    2738	    2742	 1
    2351	    2738	    2743	 1
    2352	    2738	    2744	 1
    2353	    2745	    2746	 1
    2354	    2745	    2747	 1
    2355	    2745	    2748	 1
    2356	    2745	    2749	 1
    2357	    2745	    2750	 1
    2358	    2745	    2751	 1
    2359	    2752	    2753	 1
    2360	    2752	    2754	 1
    2361	    2752	    2755	 1
    2362	    2752	    2756	 1
    2363	    2752	    2757	 1
    2364	    2752	    2758	 1
    2365	    2759	    2760	 1
    2366	    2759	    2761	 1
    2367	    2759	    2762	 1
    2368	    2759	    2763	 1
    2369	    2759	    2764	 1
    2370	    2759	    2765	 1
    2371	    2766	    2767	 1
    2372	    2766	    2768	 1
    2373	    2766	    2769	 1
    2374	    2766	    2770	 1
    2375	    2766	    2771	 1
    2376	    2766	    2772	 1
    2377	    2773	    2774	 1
    2378	    2773	    2775	 1
    2379	    2773	    2776	 1
    2380	    2773	    2777	 1
    2381	    2773	    2778	 1
    2382	    2773	    2779	 1
    2383	    2780	    2781	 1
    2384	    2780	    2782	 1
    2385	    2780	    2783	 1
    2386	    2780	    2784	 1
    2387	    2780	    2785	 1
    2388	    2780	    2786	 1
    2389	    2787	    2788	 1
    2390	    2787	    2789	 1
    2391	    2787	    2790	 1
    2392	    2787	    2791	 1
    2393	    2787	    2792	 1
    2394	    2787	    2793	 1
    2395	    2794	    2795	 1
    2396	    2794	    2796	 1
    2397	    2794	    2797	 1
    2398	    2794	    2798	 1
    2399	    2794	    2799	 1
    2400	    2794	    2800	 1
    2401	     747	    1640	 1
    2402	     661	    1103	 1
    2403	    2349	    2733	 1
    2404	    1131	    1977	 1
    2405	     417	     891	 1
    2406	    1915	    2063	 1
    2407	     667	    1178	 1
    2408	     783	    1742	 1
    2409	      18	    2554	 1
    2410	     625	     826	 1
    2411	     434	    1603	 1
    2412	     451	    1628	 1
    2413	    2061	    2727	 1
    2414	    2151	    2714	 1
    2415	     374	    1126	 1
@<TRIPOS>FF_PBC
    v1.0	       1	     -20	     -20	     -20	      20	      20	      20
